CHIKV_MacB-x1108_B_309_1_CHIKV_MacB-x0300+A+401+1
     RDKit          3D

  7  7  0  0  0  0  0  0  0  0999 V2000
    9.8200    4.9850   12.3480 N   0  0  0  0  0  0  0  0  0  0  0  0
   10.8210    5.6370   12.9680 C   0  0  0  0  0  0  0  0  0  0  0  0
   12.1480    5.4460   12.6430 C   0  0  0  0  0  0  0  0  0  0  0  0
   13.1400    6.1540   13.1900 N   0  0  0  0  0  0  0  0  0  0  0  0
   12.7680    7.0720   14.0810 C   0  0  0  0  0  0  0  0  0  0  0  0
   11.5310    7.3420   14.4920 N   0  0  0  0  0  0  0  0  0  0  0  0
   10.5680    6.6030   13.9360 C   0  0  0  0  0  0  0  0  0  0  0  0
  2  1  1  0
  2  7  2  0
  7  6  1  0
  6  5  2  0
  5  4  1  0
  4  3  2  0
  3  2  1  0
M  END
