CHIKV_MacB-x1299_B_304_1_CHIKV_MacB-x1123+B+310+1
     RDKit          3D

 13 14  0  0  0  0  0  0  0  0999 V2000
   19.6830   -8.7350    2.2830 N   0  0  0  0  0  0  0  0  0  0  0  0
   18.4080   -8.4560    2.5650 C   0  0  0  0  0  0  0  0  0  0  0  0
   17.4340   -8.5050    1.6890 N   0  0  0  0  0  0  0  0  0  0  0  0
   16.2960   -8.0600    2.3670 C   0  0  0  0  0  0  0  0  0  0  0  0
   16.6070   -7.7610    3.6920 C   0  0  0  0  0  0  0  0  0  0  0  0
   17.9900   -8.0280    3.8110 N   0  0  0  0  0  0  0  0  0  0  0  0
   18.8290   -7.8740    5.0230 C   0  0  0  0  0  0  0  0  0  0  0  0
   18.9170   -6.4210    5.4540 C   0  0  0  0  0  0  0  0  0  0  0  0
   18.3500   -8.7780    6.1450 C   0  0  0  0  0  0  0  0  0  0  0  0
   15.6530   -7.2820    4.5790 C   0  0  0  0  0  0  0  0  0  0  0  0
   14.3580   -7.0990    4.1040 C   0  0  0  0  0  0  0  0  0  0  0  0
   14.0360   -7.3850    2.7810 C   0  0  0  0  0  0  0  0  0  0  0  0
   14.9970   -7.8660    1.9010 C   0  0  0  0  0  0  0  0  0  0  0  0
  9  7  1  0
  8  7  1  0
  7  6  1  0
  6  2  1  0
  2  1  1  0
  3  2  2  0
  4  3  1  0
  4 13  2  0
 13 12  1  0
 12 11  2  0
 11 10  1  0
 10  5  2  0
  6  5  1  0
  5  4  1  0
M  END
