CHIKV_MacB-x1372_D_306_1_CHIKV_MacB-x0300+A+401+1
     RDKit          3D

 11 11  0  0  0  0  0  0  0  0999 V2000
   15.4860    9.7440   15.7470 Cl  0  0  0  0  0  0  0  0  0  0  0  0
   15.3280    9.4090   14.0440 C   0  0  0  0  0  0  0  0  0  0  0  0
   15.1640   10.4630   13.1670 C   0  0  0  0  0  0  0  0  0  0  0  0
   15.3540    8.1050   13.6060 C   0  0  0  0  0  0  0  0  0  0  0  0
   15.2170    7.8460   12.2560 C   0  0  0  0  0  0  0  0  0  0  0  0
   15.0520    8.8810   11.3200 C   0  0  0  0  0  0  0  0  0  0  0  0
   14.9370    8.5700    9.9860 N   0  0  0  0  0  0  0  0  0  0  0  0
   15.0200   10.2180   11.7960 C   0  0  0  0  0  0  0  0  0  0  0  0
   14.8290   11.3530   10.8370 C   0  0  0  0  0  0  0  0  0  0  0  0
   14.8070   11.1360    9.6170 O   0  0  0  0  0  0  0  0  0  0  0  0
   14.6980   12.5690   11.3430 N   0  0  0  0  0  0  0  0  0  0  0  0
 11  9  1  0
 10  9  2  0
  9  8  1  0
  8  3  1  0
  3  2  2  0
  2  1  1  0
  4  2  1  0
  5  4  2  0
  6  5  1  0
  8  6  2  0
  7  6  1  0
M  END
