CHIKV_MacB-x1431_B_304_1_CHIKV_MacB-x0300+A+401+1
     RDKit          3D

 11 12  0  0  0  0  0  0  0  0999 V2000
   14.4770    8.9190    9.2530 N   0  0  0  0  0  0  0  0  0  0  0  0
   14.6110    9.4200   10.4980 C   0  0  0  0  0  0  0  0  0  0  0  0
   14.5320   10.7760   10.7420 C   0  0  0  0  0  0  0  0  0  0  0  0
   14.5720   11.2650   12.0610 C   0  0  0  0  0  0  0  0  0  0  0  0
   14.7080   10.3290   13.1150 C   0  0  0  0  0  0  0  0  0  0  0  0
   14.8110    8.9720   12.8900 N   0  0  0  0  0  0  0  0  0  0  0  0
   14.7640    8.5520   11.6460 C   0  0  0  0  0  0  0  0  0  0  0  0
   14.4500   12.6370   12.3830 C   0  0  0  0  0  0  0  0  0  0  0  0
   14.4650   13.0490   13.6830 C   0  0  0  0  0  0  0  0  0  0  0  0
   14.6030   12.1330   14.7130 C   0  0  0  0  0  0  0  0  0  0  0  0
   14.7190   10.7980   14.4490 C   0  0  0  0  0  0  0  0  0  0  0  0
  2  1  1  0
  2  7  2  0
  7  6  1  0
  6  5  2  0
  5 11  1  0
 11 10  2  0
 10  9  1  0
  9  8  2  0
  8  4  1  0
  5  4  1  0
  4  3  2  0
  3  2  1  0
M  END
