CHIKV_MacB-x1131_D_306_1_CHIKV_MacB-x1145+C+304+1
     RDKit          3D

  7  7  0  0  0  0  0  0  0  0999 V2000
    8.7390    8.0340   15.1460 O   0  0  0  0  0  0  0  0  0  0  0  0
    7.5950    7.8070   15.5370 C   0  0  0  0  0  0  0  0  0  0  0  0
    7.0030    6.6440   15.3480 N   0  0  0  0  0  0  0  0  0  0  0  0
    5.5630    6.3800   15.5180 C   0  0  0  0  0  0  0  0  0  0  0  0
    4.9600    7.3960   16.4720 C   0  0  0  0  0  0  0  0  0  0  0  0
    5.3880    8.7830   16.1700 N   0  0  0  0  0  0  0  0  0  0  0  0
    6.8450    8.8980   16.2470 C   0  0  0  0  0  0  0  0  0  0  0  0
  2  1  2  0
  2  7  1  0
  7  6  1  0
  6  5  1  0
  5  4  1  0
  4  3  1  0
  3  2  1  0
M  END
