CHIKV_MacB-x1440_D_304_1_CHIKV_MacB-x0300+A+401+1
     RDKit          3D

 11 12  0  0  0  0  0  0  0  0999 V2000
   21.5720   14.9470   12.8240 N   0  0  0  0  0  0  0  0  0  0  0  0
   21.6860   13.9010   11.9940 C   0  0  0  0  0  0  0  0  0  0  0  0
   20.5310   13.1230   11.6080 C   0  0  0  0  0  0  0  0  0  0  0  0
   20.7320   12.0980   10.6400 C   0  0  0  0  0  0  0  0  0  0  0  0
   22.0320   11.8890   10.1260 C   0  0  0  0  0  0  0  0  0  0  0  0
   23.0600   12.6590   10.5730 C   0  0  0  0  0  0  0  0  0  0  0  0
   22.9280   13.6410   11.4810 N   0  0  0  0  0  0  0  0  0  0  0  0
   19.2240   13.2980   12.1380 C   0  0  0  0  0  0  0  0  0  0  0  0
   18.1910   12.5110   11.7260 C   0  0  0  0  0  0  0  0  0  0  0  0
   18.3920   11.5170   10.7810 C   0  0  0  0  0  0  0  0  0  0  0  0
   19.6300   11.3090   10.2430 C   0  0  0  0  0  0  0  0  0  0  0  0
  2  1  1  0
  2  7  2  0
  7  6  1  0
  6  5  2  0
  5  4  1  0
  4 11  2  0
 11 10  1  0
 10  9  2  0
  9  8  1  0
  8  3  2  0
  3  2  1  0
  4  3  1  0
M  END
