CHIKV_MacB-x1116_D_304_1_CHIKV_MacB-x0300+A+401+1
     RDKit          3D

  7  7  0  0  0  0  0  0  0  0999 V2000
   20.8640   11.1250   10.0650 N   0  0  0  0  0  0  0  0  0  0  0  0
   20.1560   11.9690   10.8340 C   0  0  0  0  0  0  0  0  0  0  0  0
   20.8080   13.0350   11.3500 N   0  0  0  0  0  0  0  0  0  0  0  0
   20.1350   13.8500   12.1780 C   0  0  0  0  0  0  0  0  0  0  0  0
   18.8130   13.6700   12.5240 C   0  0  0  0  0  0  0  0  0  0  0  0
   18.1390   12.5930   11.9860 C   0  0  0  0  0  0  0  0  0  0  0  0
   18.7900   11.7240   11.1270 C   0  0  0  0  0  0  0  0  0  0  0  0
  2  1  1  0
  2  7  2  0
  7  6  1  0
  6  5  2  0
  5  4  1  0
  4  3  2  0
  3  2  1  0
M  END
