CHIKV_MacB-x0399_B_402_1_CHIKV_MacB-x0300+A+401+1
     RDKit          3D

 13 14  0  0  0  0  0  0  0  0999 V2000
   21.3990   15.9790   11.5190 O   0  0  0  0  0  0  0  0  0  0  0  0
   20.4740   15.4440   12.1260 C   0  0  0  0  0  0  0  0  0  0  0  0
   19.7490   16.0930   13.0340 N   0  0  0  0  0  0  0  0  0  0  0  0
   18.6300   16.9410   12.6600 C   0  0  0  0  0  0  0  0  0  0  0  0
   20.0980   14.0210   11.8520 C   0  0  0  0  0  0  0  0  0  0  0  0
   21.0500   13.0640   11.4580 C   0  0  0  0  0  0  0  0  0  0  0  0
   22.4180   13.1500   11.3590 N   0  0  0  0  0  0  0  0  0  0  0  0
   22.9030   11.9370   10.9430 C   0  0  0  0  0  0  0  0  0  0  0  0
   21.8830   11.0610   10.7650 C   0  0  0  0  0  0  0  0  0  0  0  0
   20.6750   11.7540   11.0890 C   0  0  0  0  0  0  0  0  0  0  0  0
   19.3190   11.4160   11.1240 C   0  0  0  0  0  0  0  0  0  0  0  0
   18.3770   12.3460   11.5340 C   0  0  0  0  0  0  0  0  0  0  0  0
   18.7570   13.6300   11.9050 C   0  0  0  0  0  0  0  0  0  0  0  0
  4  3  1  0
  3  2  1  0
  2  1  2  0
  5  2  1  0
  5 13  2  0
 13 12  1  0
 12 11  2  0
 11 10  1  0
 10  9  1  0
  9  8  2  0
  8  7  1  0
  7  6  1  0
  6  5  1  0
 10  6  2  0
M  END
