CHIKV_MacB-x1305_B_308_1_CHIKV_MacB-x0300+A+401+1
     RDKit          3D

 10 11  0  0  0  0  0  0  0  0999 V2000
   14.7510   10.9990   14.9910 O   0  0  0  0  0  0  0  0  0  0  0  0
   14.6760   11.1250   13.6350 C   0  0  0  0  0  0  0  0  0  0  0  0
   15.0250   10.0340   12.8500 C   0  0  0  0  0  0  0  0  0  0  0  0
   14.9420   10.1670   11.4810 C   0  0  0  0  0  0  0  0  0  0  0  0
   15.3420    9.2740   10.5120 O   0  0  0  0  0  0  0  0  0  0  0  0
   15.0150    9.8910    9.2660 C   0  0  0  0  0  0  0  0  0  0  0  0
   14.5110   11.2030    9.5290 O   0  0  0  0  0  0  0  0  0  0  0  0
   14.5000   11.3270   10.9000 C   0  0  0  0  0  0  0  0  0  0  0  0
   14.1340   12.4170   11.6660 C   0  0  0  0  0  0  0  0  0  0  0  0
   14.2390   12.3160   13.0450 C   0  0  0  0  0  0  0  0  0  0  0  0
  2  1  1  0
  2 10  2  0
 10  9  1  0
  9  8  2  0
  8  7  1  0
  7  6  1  0
  6  5  1  0
  5  4  1  0
  8  4  1  0
  4  3  2  0
  3  2  1  0
M  END
