CHIKV_MacB-x0822_A_401_1_CHIKV_MacB-x0300+A+401+1
     RDKit          3D

 10 10  0  0  0  0  0  0  0  0999 V2000
   16.7600    3.8800   16.3890 O   0  0  0  0  0  0  0  0  0  0  0  0
   15.7160    3.1950   15.6880 C   0  0  1  0  0  0  0  0  0  0  0  0
   14.9630    4.1600   14.8010 C   0  0  0  0  0  0  0  0  0  0  0  0
   16.3190    2.0680   14.8760 C   0  0  0  0  0  0  0  0  0  0  0  0
   17.0550    1.1230   15.7180 N   0  0  0  0  0  0  0  0  0  0  0  0
   18.4120    1.0170   15.8700 C   0  0  0  0  0  0  0  0  0  0  0  0
   19.3820    1.9100   15.1890 C   0  0  0  0  0  0  0  0  0  0  0  0
   18.7230    0.0390   16.7050 N   0  0  0  0  0  0  0  0  0  0  0  0
   17.5140   -0.4960   17.1090 C   0  0  0  0  0  0  0  0  0  0  0  0
   16.4830    0.1550   16.5150 C   0  0  0  0  0  0  0  0  0  0  0  0
  2  3  1  6
  2  1  1  0
  4  2  1  0
  5  4  1  0
  5 10  1  0
 10  9  2  0
  9  8  1  0
  8  6  2  0
  6  5  1  0
  7  6  1  0
M  END
