CHIKV_MacB-x1185_C_304_1_CHIKV_MacB-x0300+A+401+1
     RDKit          3D

 15 16  0  0  0  0  0  0  0  0999 V2000
   14.9870    0.4220   15.6000 O   0  0  0  0  0  0  0  0  0  0  0  0
   15.9970    0.4510   16.2860 C   0  0  0  0  0  0  0  0  0  0  0  0
   16.2020   -0.6150   17.3150 C   0  0  0  0  0  0  0  0  0  0  0  0
   17.1690   -1.6190   17.2010 C   0  0  0  0  0  0  0  0  0  0  0  0
   17.2410   -2.6270   18.1440 C   0  0  0  0  0  0  0  0  0  0  0  0
   16.3560   -2.6560   19.1990 C   0  0  0  0  0  0  0  0  0  0  0  0
   15.4090   -1.6580   19.3480 C   0  0  0  0  0  0  0  0  0  0  0  0
   15.3640   -0.6540   18.4150 C   0  0  0  0  0  0  0  0  0  0  0  0
   14.4920    0.3730   18.5970 F   0  0  0  0  0  0  0  0  0  0  0  0
   16.8420    1.4990   16.2910 N   0  0  0  0  0  0  0  0  0  0  0  0
   17.8770    1.6450   17.3250 C   0  0  0  0  0  0  0  0  0  0  0  0
   19.2080    2.0010   16.7260 C   0  0  0  0  0  0  0  0  0  0  0  0
   19.0490    3.2060   15.9410 N   0  0  0  0  0  0  0  0  0  0  0  0
   18.1360    2.9590   14.8300 C   0  0  0  0  0  0  0  0  0  0  0  0
   16.7640    2.6230   15.3490 C   0  0  0  0  0  0  0  0  0  0  0  0
  9  8  1  0
  8  7  1  0
  7  6  2  0
  6  5  1  0
  5  4  2  0
  4  3  1  0
  8  3  2  0
  3  2  1  0
  2  1  2  0
 10  2  1  0
 10 15  1  0
 15 14  1  0
 14 13  1  0
 13 12  1  0
 12 11  1  0
 11 10  1  0
M  END
