CHIKV_MacB-x0864_D_401_1_CHIKV_MacB-x0300+A+401+1
     RDKit          3D

 14 16  0  0  0  0  0  0  0  0999 V2000
   15.0320    9.6240   17.3620 C   0  0  0  0  0  0  0  0  0  0  0  0
   14.8420    9.2310   16.0660 C   0  0  0  0  0  0  0  0  0  0  0  0
   15.3380   10.9260   17.3470 N   0  0  0  0  0  0  0  0  0  0  0  0
   15.3560   11.4230   16.0890 N   0  0  0  0  0  0  0  0  0  0  0  0
   15.0520   10.3880   15.2950 C   0  0  0  0  0  0  0  0  0  0  0  0
   14.9790   10.5520   13.8310 C   0  0  0  0  0  0  0  0  0  0  0  0
   14.6340   11.7920   13.2740 C   0  0  0  0  0  0  0  0  0  0  0  0
   14.6200   11.9820   11.8980 C   0  0  0  0  0  0  0  0  0  0  0  0
   15.2960    9.4850   12.9900 C   0  0  0  0  0  0  0  0  0  0  0  0
   15.2680    9.6860   11.6230 C   0  0  0  0  0  0  0  0  0  0  0  0
   14.9430   10.9090   11.0890 C   0  0  0  0  0  0  0  0  0  0  0  0
   14.9820   10.8480    9.7130 O   0  0  0  0  0  0  0  0  0  0  0  0
   15.5250    8.7820   10.6140 O   0  0  0  0  0  0  0  0  0  0  0  0
   15.4800    9.5420    9.4030 C   0  0  0  0  0  0  0  0  0  0  0  0
 14 12  1  0
 12 11  1  0
 11  8  1  0
  8  7  2  0
  7  6  1  0
  9  6  2  0
 10  9  1  0
 11 10  2  0
 13 10  1  0
 14 13  1  0
  6  5  1  0
  5  2  1  0
  2  1  2  0
  3  1  1  0
  4  3  1  0
  5  4  2  0
M  END
