CHIKV_MacB-x1132_D_306_1_CHIKV_MacB-x0300+A+401+1
     RDKit          3D

  7  7  0  0  0  0  0  0  0  0999 V2000
   18.3230   13.7480   12.5720 N   0  0  0  0  0  0  0  0  0  0  0  0
   18.9080   12.8440   11.7800 C   0  0  0  0  0  0  0  0  0  0  0  0
   18.1400   11.8310   11.3070 N   0  0  0  0  0  0  0  0  0  0  0  0
   18.7580   10.9360   10.5210 C   0  0  0  0  0  0  0  0  0  0  0  0
   20.0990   11.0050   10.1960 C   0  0  0  0  0  0  0  0  0  0  0  0
   20.7940   12.0710   10.7280 C   0  0  0  0  0  0  0  0  0  0  0  0
   20.2300   13.0030   11.5120 N   0  0  0  0  0  0  0  0  0  0  0  0
  2  1  1  0
  2  7  2  0
  7  6  1  0
  6  5  2  0
  5  4  1  0
  4  3  2  0
  3  2  1  0
M  END
