CHIKV_MacB-x1402_A_501_1_CHIKV_MacB-x0300+A+401+1
     RDKit          3D

  9 10  0  0  0  0  0  0  0  0999 V2000
   20.7460   11.2520   10.4170 N   0  0  0  0  0  0  0  0  0  0  0  0
   22.0170   11.7610   10.5400 C   0  0  0  0  0  0  0  0  0  0  0  0
   19.8950   12.0660   11.1080 C   0  0  0  0  0  0  0  0  0  0  0  0
   20.6540   13.1200   11.6740 C   0  0  0  0  0  0  0  0  0  0  0  0
   22.0050   12.8880   11.2970 C   0  0  0  0  0  0  0  0  0  0  0  0
   18.5680   11.8960   11.2220 N   0  0  0  0  0  0  0  0  0  0  0  0
   17.9340   12.8430   11.9410 C   0  0  0  0  0  0  0  0  0  0  0  0
   18.5670   13.9350   12.5370 C   0  0  0  0  0  0  0  0  0  0  0  0
   19.9420   14.0750   12.4030 C   0  0  0  0  0  0  0  0  0  0  0  0
  2  5  2  0
  5  4  1  0
  4  9  2  0
  9  8  1  0
  8  7  2  0
  7  6  1  0
  6  3  2  0
  4  3  1  0
  3  1  1  0
  2  1  1  0
M  END
