CHIKV_MacB-x0839_B_401_1_CHIKV_MacB-x0300+A+401+1
     RDKit          3D

 12 13  0  0  0  0  0  0  0  0999 V2000
   15.2940   13.1150   15.3350 C   0  0  0  0  0  0  0  0  0  0  0  0
   14.9210   13.3720   13.9600 N   0  0  0  0  0  0  0  0  0  0  0  0
   14.9080   12.4080   12.9890 C   0  0  0  0  0  0  0  0  0  0  0  0
   15.0100   11.1440   13.3710 N   0  0  0  0  0  0  0  0  0  0  0  0
   14.9930   10.2030   12.3750 C   0  0  0  0  0  0  0  0  0  0  0  0
   14.8880   10.5780   11.0170 C   0  0  0  0  0  0  0  0  0  0  0  0
   14.7800   11.8940   10.6510 N   0  0  0  0  0  0  0  0  0  0  0  0
   14.7870   12.7760   11.6240 C   0  0  0  0  0  0  0  0  0  0  0  0
   15.0640    8.8300   12.7080 C   0  0  0  0  0  0  0  0  0  0  0  0
   15.0400    7.8850   11.7190 C   0  0  0  0  0  0  0  0  0  0  0  0
   14.9390    8.2570   10.3800 C   0  0  0  0  0  0  0  0  0  0  0  0
   14.8680    9.5740   10.0230 C   0  0  0  0  0  0  0  0  0  0  0  0
  2  1  1  0
  3  2  1  0
  3  8  2  0
  8  7  1  0
  7  6  2  0
  6 12  1  0
 12 11  2  0
 11 10  1  0
 10  9  2  0
  9  5  1  0
  6  5  1  0
  5  4  2  0
  4  3  1  0
M  END
