CHIKV_MacB-x1151_D_401_1_CHIKV_MacB-x0300+A+401+1
     RDKit          3D

  6  6  0  0  0  0  0  0  0  0999 V2000
   11.5840    7.8380   14.7470 O   0  0  0  0  0  0  0  0  0  0  0  0
   11.3610    6.9540   13.9180 C   0  0  0  0  0  0  0  0  0  0  0  0
   10.1460    6.5600   13.5030 N   0  0  0  0  0  0  0  0  0  0  0  0
   10.2040    5.4860   12.5280 C   0  0  0  0  0  0  0  0  0  0  0  0
   11.7090    5.2380   12.3860 C   0  0  0  0  0  0  0  0  0  0  0  0
   12.2910    6.2190   13.2930 N   0  0  0  0  0  0  0  0  0  0  0  0
  2  1  2  0
  2  6  1  0
  6  5  1  0
  5  4  1  0
  4  3  1  0
  3  2  1  0
M  END
