CHIKV_MacB-x1151_C_403_1_CHIKV_MacB-x0300+A+401+1
     RDKit          3D

  6  6  0  0  0  0  0  0  0  0999 V2000
   14.6300   11.5050    9.8550 O   0  0  0  0  0  0  0  0  0  0  0  0
   14.4970   11.7250   11.0580 C   0  0  0  0  0  0  0  0  0  0  0  0
   14.7910   10.8620   12.0440 N   0  0  0  0  0  0  0  0  0  0  0  0
   14.4170   11.3710   13.3570 C   0  0  0  0  0  0  0  0  0  0  0  0
   13.9800   12.8050   13.0520 C   0  0  0  0  0  0  0  0  0  0  0  0
   13.9980   12.8460   11.5940 N   0  0  0  0  0  0  0  0  0  0  0  0
  2  1  2  0
  2  6  1  0
  6  5  1  0
  5  4  1  0
  4  3  1  0
  3  2  1  0
M  END
