CHIKV_MacB-x0317_C_401_1_CHIKV_MacB-x0300+A+401+1
     RDKit          3D

 10 10  0  0  0  0  0  0  0  0999 V2000
   18.6640    4.2360   11.6000 O   0  0  0  0  0  0  0  0  0  0  0  0
   17.8540    3.9840   12.4930 C   0  0  0  0  0  0  0  0  0  0  0  0
   18.1660    3.3620   13.6500 N   0  0  0  0  0  0  0  0  0  0  0  0
   16.9980    3.1680   14.3780 N   0  0  0  0  0  0  0  0  0  0  0  0
   16.4110    4.2000   12.5140 C   0  0  0  0  0  0  0  0  0  0  0  0
   15.9450    3.6590   13.7050 C   0  0  0  0  0  0  0  0  0  0  0  0
   14.5580    3.5570   14.2500 C   0  0  0  0  0  0  0  0  0  0  0  0
   15.6990    4.9330   11.4110 C   0  0  0  0  0  0  0  0  0  0  0  0
   14.8960    4.0230   10.5200 C   0  0  0  0  0  0  0  0  0  0  0  0
   14.0680    4.8000    9.6440 O   0  0  0  0  0  0  0  0  0  0  0  0
  7  6  1  0
  6  4  1  0
  4  3  1  0
  3  2  1  0
  2  1  2  0
  5  2  1  0
  6  5  2  0
  8  5  1  0
  9  8  1  0
 10  9  1  0
M  END
