CHIKV_MacB-x0969_D_401_1_CHIKV_MacB-x0300+A+401+1
     RDKit          3D

 11 12  0  0  0  0  0  0  0  0999 V2000
   16.2580   10.8710   15.8720 O   0  0  0  0  0  0  0  0  0  0  0  0
   14.9500   10.9990   15.3690 C   0  0  0  0  0  0  0  0  0  0  0  0
   14.9190   11.0420   13.8640 C   0  0  0  0  0  0  0  0  0  0  0  0
   15.2350    9.9130   13.1170 C   0  0  0  0  0  0  0  0  0  0  0  0
   15.1410    9.9210   11.7320 C   0  0  0  0  0  0  0  0  0  0  0  0
   15.4300    8.8690   10.7000 C   0  0  0  0  0  0  0  0  0  0  0  0
   15.3250    9.6750    9.4170 C   0  0  0  0  0  0  0  0  0  0  0  0
   14.6190   10.9100    9.7360 O   0  0  0  0  0  0  0  0  0  0  0  0
   14.7320   11.0790   11.0960 C   0  0  0  0  0  0  0  0  0  0  0  0
   14.4370   12.2290   11.8050 C   0  0  0  0  0  0  0  0  0  0  0  0
   14.5290   12.1950   13.1900 C   0  0  0  0  0  0  0  0  0  0  0  0
  2  1  1  0
  3  2  1  0
  3 11  2  0
 11 10  1  0
 10  9  2  0
  9  8  1  0
  8  7  1  0
  7  6  1  0
  6  5  1  0
  9  5  1  0
  5  4  2  0
  4  3  1  0
M  END
