CHIKV_MacB-x0721_B_401_1_CHIKV_MacB-x0300+A+401+1
     RDKit          3D

 15 15  0  0  0  0  0  0  0  0999 V2000
   15.2440    8.0540   12.5280 O   0  0  0  0  0  0  0  0  0  0  0  0
   15.2130    9.1670   13.0510 C   0  0  0  0  0  0  0  0  0  0  0  0
   14.9210   10.3730   12.2140 C   0  0  0  0  0  0  0  0  0  0  0  0
   15.0150   10.4950   10.8490 C   0  0  0  0  0  0  0  0  0  0  0  0
   15.5180    9.4680    9.8880 C   0  0  0  0  0  0  0  0  0  0  0  0
   14.6220   11.7200   10.3460 N   0  0  0  0  0  0  0  0  0  0  0  0
   14.2550   12.5050   11.3100 C   0  0  0  0  0  0  0  0  0  0  0  0
   14.3450   11.8510   12.8960 S   0  0  0  0  0  0  0  0  0  0  0  0
   15.4330    9.3600   14.3540 N   0  0  0  0  0  0  0  0  0  0  0  0
   16.1100    8.3690   15.1650 C   0  0  0  0  0  0  0  0  0  0  0  0
   15.1380    7.3130   15.6860 C   0  0  0  0  0  0  0  0  0  0  0  0
   13.9770    7.3080   15.3050 O   0  0  0  0  0  0  0  0  0  0  0  0
   15.6010    6.3950   16.5540 N   0  0  0  0  0  0  0  0  0  0  0  0
   15.1630    5.0050   16.5080 C   0  0  0  0  0  0  0  0  0  0  0  0
   16.5750    6.7000   17.6010 C   0  0  0  0  0  0  0  0  0  0  0  0
 15 13  1  0
 14 13  1  0
 13 11  1  0
 12 11  2  0
 11 10  1  0
 10  9  1  0
  9  2  1  0
  2  1  2  0
  3  2  1  0
  3  8  1  0
  8  7  1  0
  7  6  2  0
  6  4  1  0
  4  3  2  0
  5  4  1  0
M  END
