CHIKV_MacB-x1203_B_309_1_CHIKV_MacB-x0300+A+401+1
     RDKit          3D

 11 12  0  0  0  0  0  0  0  0999 V2000
   14.4730   13.3740   11.6380 N   0  0  0  0  0  0  0  0  0  0  0  0
   14.6400   12.0570   11.5580 C   0  0  0  0  0  0  0  0  0  0  0  0
   14.7760   11.3860   10.4330 N   0  0  0  0  0  0  0  0  0  0  0  0
   14.9590   10.0590   10.8160 C   0  0  0  0  0  0  0  0  0  0  0  0
   14.9290    9.9570   12.2060 C   0  0  0  0  0  0  0  0  0  0  0  0
   14.7280   11.2470   12.6680 N   0  0  0  0  0  0  0  0  0  0  0  0
   14.6240   11.6280   14.0730 C   0  0  0  0  0  0  0  0  0  0  0  0
   15.0730    8.7450   12.8650 C   0  0  0  0  0  0  0  0  0  0  0  0
   15.2500    7.6120   12.0850 C   0  0  0  0  0  0  0  0  0  0  0  0
   15.2670    7.6940   10.6920 C   0  0  0  0  0  0  0  0  0  0  0  0
   15.1330    8.9140   10.0440 C   0  0  0  0  0  0  0  0  0  0  0  0
  7  6  1  0
  6  2  1  0
  2  1  1  0
  3  2  2  0
  4  3  1  0
  4 11  2  0
 11 10  1  0
 10  9  2  0
  9  8  1  0
  8  5  2  0
  6  5  1  0
  5  4  1  0
M  END
