CHIKV_MacB-x1134_D_401_1_CHIKV_MacB-x0300+A+401+1
     RDKit          3D

  7  6  0  0  0  0  0  0  0  0999 V2000
   14.1510   12.7860   11.1960 O   0  0  0  0  0  0  0  0  0  0  0  0
   14.4450   11.6780   10.3950 N   0  0  0  0  0  0  0  0  0  0  0  0
   14.6980   10.6590   11.1390 C   0  0  0  0  0  0  0  0  0  0  0  0
   14.6840   10.6720   12.5330 N   0  0  0  0  0  0  0  0  0  0  0  0
   15.0410    9.3710   10.4430 C   0  0  0  0  0  0  0  0  0  0  0  0
   16.3110    9.5180    9.6520 C   0  0  0  0  0  0  0  0  0  0  0  0
   13.9160    8.8650    9.5360 C   0  0  0  0  0  0  0  0  0  0  0  0
  7  5  1  0
  6  5  1  0
  5  3  1  0
  3  2  2  0
  2  1  1  0
  4  3  1  0
M  END
