CHIKV_MacB-x1203_B_308_1_CHIKV_MacB-x0300+A+401+1
     RDKit          3D

 11 12  0  0  0  0  0  0  0  0999 V2000
   16.4430    2.0780   15.1170 N   0  0  0  0  0  0  0  0  0  0  0  0
   16.8250    0.9530   15.7330 C   0  0  0  0  0  0  0  0  0  0  0  0
   16.0300    0.1840   16.4460 N   0  0  0  0  0  0  0  0  0  0  0  0
   16.8420   -0.8430   16.9330 C   0  0  0  0  0  0  0  0  0  0  0  0
   18.1460   -0.6800   16.4710 C   0  0  0  0  0  0  0  0  0  0  0  0
   18.1250    0.4870   15.7030 N   0  0  0  0  0  0  0  0  0  0  0  0
   19.2700    1.0980   15.0320 C   0  0  0  0  0  0  0  0  0  0  0  0
   19.1640   -1.5590   16.8050 C   0  0  0  0  0  0  0  0  0  0  0  0
   18.8480   -2.6220   17.6460 C   0  0  0  0  0  0  0  0  0  0  0  0
   17.5490   -2.7910   18.1320 C   0  0  0  0  0  0  0  0  0  0  0  0
   16.5370   -1.9090   17.7790 C   0  0  0  0  0  0  0  0  0  0  0  0
  7  6  1  0
  6  2  1  0
  2  1  1  0
  3  2  2  0
  4  3  1  0
  4 11  2  0
 11 10  1  0
 10  9  2  0
  9  8  1  0
  8  5  2  0
  6  5  1  0
  5  4  1  0
M  END
