CHIKV_MacB-x0927_C_401_1_CHIKV_MacB-x0300+A+401+1
     RDKit          3D

 14 15  0  0  0  0  0  0  0  0999 V2000
   14.7920    0.6910   15.6760 O   0  0  0  0  0  0  0  0  0  0  0  0
   15.9770    0.9940   15.7180 C   0  0  0  0  0  0  0  0  0  0  0  0
   16.6730    2.1030   14.9730 C   0  0  0  0  0  0  0  0  0  0  0  0
   18.0910    1.7290   15.2840 C   0  0  0  0  0  0  0  0  0  0  0  0
   19.2770    2.3900   14.6680 C   0  0  0  0  0  0  0  0  0  0  0  0
   16.9450    0.3340   16.4420 N   0  0  0  0  0  0  0  0  0  0  0  0
   18.2140    0.7750   16.1230 N   0  0  0  0  0  0  0  0  0  0  0  0
   16.7870   -0.6850   17.4320 C   0  0  0  0  0  0  0  0  0  0  0  0
   17.6880   -1.7480   17.4830 C   0  0  0  0  0  0  0  0  0  0  0  0
   17.4980   -2.7750   18.4100 C   0  0  0  0  0  0  0  0  0  0  0  0
   18.4000   -3.8100   18.4990 N   0  0  0  0  0  0  0  0  0  0  0  0
   16.3940   -2.7240   19.2670 C   0  0  0  0  0  0  0  0  0  0  0  0
   15.5120   -1.6610   19.2100 C   0  0  0  0  0  0  0  0  0  0  0  0
   15.7060   -0.6350   18.3030 C   0  0  0  0  0  0  0  0  0  0  0  0
  5  4  1  0
  4  7  2  0
  7  6  1  0
  6  2  1  0
  2  1  2  0
  3  2  1  0
  4  3  1  0
  8  6  1  0
  8 14  2  0
 14 13  1  0
 13 12  2  0
 12 10  1  0
 11 10  1  0
 10  9  2  0
  9  8  1  0
M  END
