CHIKV_MacB-x1075_D_401_1_CHIKV_MacB-x0300+A+401+1
     RDKit          3D

  8  8  0  0  0  0  0  0  0  0999 V2000
   15.2380    8.1010   13.3590 Br  0  0  0  0  0  0  0  0  0  0  0  0
   15.0410    9.3820   11.9700 C   0  0  0  0  0  0  0  0  0  0  0  0
   15.1900    8.9840   10.6590 C   0  0  0  0  0  0  0  0  0  0  0  0
   15.0820    9.9600    9.6900 C   0  0  0  0  0  0  0  0  0  0  0  0
   14.8350   11.2550    9.9580 N   0  0  0  0  0  0  0  0  0  0  0  0
   14.7910   10.7000   12.2990 C   0  0  0  0  0  0  0  0  0  0  0  0
   14.6950   11.6200   11.2520 C   0  0  0  0  0  0  0  0  0  0  0  0
   14.4670   12.9210   11.4850 N   0  0  0  0  0  0  0  0  0  0  0  0
  8  7  1  0
  7  5  1  0
  5  4  2  0
  4  3  1  0
  3  2  2  0
  2  1  1  0
  6  2  1  0
  7  6  2  0
M  END
