CHIKV_MacB-x0888_A_304_1_CHIKV_MacB-x1132+B+403+1
     RDKit          3D

 12 13  0  0  0  0  0  0  0  0999 V2000
    3.4600   27.3480    6.1110 O   0  0  0  0  0  0  0  0  0  0  0  0
    3.6470   26.2690    6.6580 C   0  0  0  0  0  0  0  0  0  0  0  0
    2.7350   25.5430    7.3620 N   0  0  0  0  0  0  0  0  0  0  0  0
    4.9630   25.5020    6.6950 C   0  0  2  0  0  0  0  0  0  0  0  0
    4.5830   24.3650    7.5280 N   0  0  0  0  0  0  0  0  0  0  0  0
    3.2920   24.3930    7.8930 C   0  0  0  0  0  0  0  0  0  0  0  0
    2.7120   23.5580    8.5870 O   0  0  0  0  0  0  0  0  0  0  0  0
    6.0990   26.3290    7.3160 C   0  0  0  0  0  0  0  0  0  0  0  0
    7.3370   25.5580    7.3220 N   0  0  0  0  0  0  0  0  0  0  0  0
    7.7430   25.1760    5.9640 C   0  0  0  0  0  0  0  0  0  0  0  0
    6.7020   24.3320    5.2790 C   0  0  0  0  0  0  0  0  0  0  0  0
    5.3630   25.0600    5.2790 C   0  0  0  0  0  0  0  0  0  0  0  0
  7  6  2  0
  6  3  1  0
  3  2  1  0
  2  1  2  0
  4  2  1  0
  4 12  1  6
 12 11  1  0
 11 10  1  0
 10  9  1  0
  9  8  1  0
  8  4  1  0
  5  4  1  0
  6  5  1  0
M  END
