CHIKV_MacB-x1372_C_401_1_CHIKV_MacB-x0300+A+401+1
     RDKit          3D

 11 11  0  0  0  0  0  0  0  0999 V2000
   15.0150    9.7650   15.6620 Cl  0  0  0  0  0  0  0  0  0  0  0  0
   15.0060    9.5100   13.9400 C   0  0  0  0  0  0  0  0  0  0  0  0
   14.9280   10.6040   13.1050 C   0  0  0  0  0  0  0  0  0  0  0  0
   15.0620    8.2270   13.4480 C   0  0  0  0  0  0  0  0  0  0  0  0
   15.0420    8.0320   12.0800 C   0  0  0  0  0  0  0  0  0  0  0  0
   14.9510    9.1100   11.1840 C   0  0  0  0  0  0  0  0  0  0  0  0
   14.9260    8.8580    9.8330 N   0  0  0  0  0  0  0  0  0  0  0  0
   14.8820   10.4250   11.7190 C   0  0  0  0  0  0  0  0  0  0  0  0
   14.6810   11.5970   10.8070 C   0  0  0  0  0  0  0  0  0  0  0  0
   14.6080   11.4150    9.5830 O   0  0  0  0  0  0  0  0  0  0  0  0
   14.5690   12.8070   11.3510 N   0  0  0  0  0  0  0  0  0  0  0  0
 11  9  1  0
 10  9  2  0
  9  8  1  0
  8  3  1  0
  3  2  2  0
  2  1  1  0
  4  2  1  0
  5  4  2  0
  6  5  1  0
  8  6  2  0
  7  6  1  0
M  END
