CHIKV_MacB-x1203_A_501_1_CHIKV_MacB-x0300+A+401+1
     RDKit          3D

 11 12  0  0  0  0  0  0  0  0999 V2000
   16.1620    2.0030   14.9000 N   0  0  0  0  0  0  0  0  0  0  0  0
   16.6610    0.9790   15.6040 C   0  0  0  0  0  0  0  0  0  0  0  0
   15.9430    0.1560   16.3420 N   0  0  0  0  0  0  0  0  0  0  0  0
   16.8580   -0.7600   16.8750 C   0  0  0  0  0  0  0  0  0  0  0  0
   18.1430   -0.4680   16.4240 C   0  0  0  0  0  0  0  0  0  0  0  0
   18.0060    0.6650   15.6220 N   0  0  0  0  0  0  0  0  0  0  0  0
   19.0910    1.3930   14.9670 C   0  0  0  0  0  0  0  0  0  0  0  0
   19.2460   -1.2430   16.7690 C   0  0  0  0  0  0  0  0  0  0  0  0
   19.0270   -2.3330   17.6060 C   0  0  0  0  0  0  0  0  0  0  0  0
   17.7480   -2.6280   18.0840 C   0  0  0  0  0  0  0  0  0  0  0  0
   16.6550   -1.8460   17.7270 C   0  0  0  0  0  0  0  0  0  0  0  0
  7  6  1  0
  6  2  1  0
  2  1  1  0
  3  2  2  0
  4  3  1  0
  4 11  2  0
 11 10  1  0
 10  9  2  0
  9  8  1  0
  8  5  2  0
  6  5  1  0
  5  4  1  0
M  END
