CHIKV_MacB-x1194_A_305_1_CHIKV_MacB-x0300+A+401+1
     RDKit          3D

 13 14  0  0  0  0  0  0  0  0999 V2000
   14.3390   12.9170   11.4500 O   0  0  0  0  0  0  0  0  0  0  0  0
   14.5360   11.7060   11.4310 C   0  0  0  0  0  0  0  0  0  0  0  0
   14.5840   10.9640   10.2970 N   0  0  0  0  0  0  0  0  0  0  0  0
   14.7890    9.6100   10.6700 N   0  0  0  0  0  0  0  0  0  0  0  0
   14.5700    8.5000    9.7480 C   0  0  0  0  0  0  0  0  0  0  0  0
   14.8590    9.4940   12.0200 C   0  0  0  0  0  0  0  0  0  0  0  0
   14.7230   10.7750   12.5590 C   0  0  0  0  0  0  0  0  0  0  0  0
   14.8020   10.8760   13.9560 C   0  0  0  0  0  0  0  0  0  0  0  0
   14.7410   12.2010   14.6740 C   0  0  0  0  0  0  0  0  0  0  0  0
   14.9870    9.7030   14.6810 C   0  0  0  0  0  0  0  0  0  0  0  0
   15.0330    8.3530   12.7030 N   0  0  0  0  0  0  0  0  0  0  0  0
   15.1030    8.4690   14.0440 C   0  0  0  0  0  0  0  0  0  0  0  0
   15.3670    7.2110   14.8110 C   0  0  0  0  0  0  0  0  0  0  0  0
 13 12  1  0
 12 10  2  0
 10  8  1  0
  9  8  1  0
  8  7  2  0
  7  2  1  0
  2  1  2  0
  3  2  1  0
  4  3  1  0
  5  4  1  0
  6  4  1  0
  7  6  1  0
 11  6  2  0
 12 11  1  0
M  END
