CHIKV_MacB-x1139_A_305_1_CHIKV_MacB-x0300+A+401+1
     RDKit          3D

  7  7  0  0  0  0  0  0  0  0999 V2000
    7.3680    7.7450   15.0510 O   0  0  0  0  0  0  0  0  0  0  0  0
    6.5430    7.0750   15.9800 C   0  0  0  0  0  0  0  0  0  0  0  0
    5.9810    8.0710   16.9410 C   0  0  0  0  0  0  0  0  0  0  0  0
    4.7040    8.4600   16.9450 N   0  0  0  0  0  0  0  0  0  0  0  0
    4.6500    9.4550   17.8710 N   0  0  0  0  0  0  0  0  0  0  0  0
    5.8520    9.6600   18.4120 C   0  0  0  0  0  0  0  0  0  0  0  0
    6.7330    8.8060   17.8010 C   0  0  0  0  0  0  0  0  0  0  0  0
  2  1  1  0
  3  2  1  0
  3  7  1  0
  7  6  2  0
  6  5  1  0
  5  4  1  0
  4  3  2  0
M  END
