CHIKV_MacB-x1145_C_309_1_CHIKV_MacB-x1123+B+310+1
     RDKit          3D

  6  6  0  0  0  0  0  0  0  0999 V2000
    8.5700  -10.7370    4.3840 N   0  0  0  0  0  0  0  0  0  0  0  0
    7.4320  -10.0940    4.1120 C   0  0  0  0  0  0  0  0  0  0  0  0
    7.3030   -8.7850    3.9980 N   0  0  0  0  0  0  0  0  0  0  0  0
    6.0040   -8.6090    3.6600 N   0  0  0  0  0  0  0  0  0  0  0  0
    5.3450   -9.7700    3.5860 C   0  0  0  0  0  0  0  0  0  0  0  0
    6.2360  -10.7660    3.8720 C   0  0  0  0  0  0  0  0  0  0  0  0
  2  1  1  0
  2  6  1  0
  6  5  2  0
  5  4  1  0
  4  3  1  0
  3  2  2  0
M  END
