CHIKV_MacB-x1431_B_308_1_CHIKV_MacB-x0300+A+401+1
     RDKit          3D

 11 12  0  0  0  0  0  0  0  0999 V2000
    9.9220    5.0900   12.2320 N   0  0  0  0  0  0  0  0  0  0  0  0
   10.9000    5.6810   13.0000 C   0  0  0  0  0  0  0  0  0  0  0  0
   12.2210    5.2880   12.9120 C   0  0  0  0  0  0  0  0  0  0  0  0
   13.1940    5.8670   13.7500 C   0  0  0  0  0  0  0  0  0  0  0  0
   12.7800    6.8710   14.6610 C   0  0  0  0  0  0  0  0  0  0  0  0
   11.4720    7.3010   14.7420 N   0  0  0  0  0  0  0  0  0  0  0  0
   10.5850    6.7240   13.9590 C   0  0  0  0  0  0  0  0  0  0  0  0
   14.5480    5.4540   13.7620 C   0  0  0  0  0  0  0  0  0  0  0  0
   15.4330    6.0040   14.6450 C   0  0  0  0  0  0  0  0  0  0  0  0
   15.0240    6.9830   15.5390 C   0  0  0  0  0  0  0  0  0  0  0  0
   13.7310    7.4190   15.5530 C   0  0  0  0  0  0  0  0  0  0  0  0
  2  1  1  0
  2  7  2  0
  7  6  1  0
  6  5  2  0
  5 11  1  0
 11 10  2  0
 10  9  1  0
  9  8  2  0
  8  4  1  0
  5  4  1  0
  4  3  2  0
  3  2  1  0
M  END
