CHIKV_MacB-x1182_A_305_1_CHIKV_MacB-x0300+A+401+1
     RDKit          3D

  9  9  0  0  0  0  0  0  0  0999 V2000
    8.4530    8.4300   15.2550 N   0  0  0  0  0  0  0  0  0  0  0  0
    7.7750    7.7540   15.8700 C   0  0  0  0  0  0  0  0  0  0  0  0
    6.8850    6.8570   16.6240 C   0  0  2  0  0  0  0  0  0  0  0  0
    5.4850    6.7740   15.9870 C   0  0  0  0  0  0  0  0  0  0  0  0
    4.7730    8.1040   16.2030 C   0  0  0  0  0  0  0  0  0  0  0  0
    6.5450    7.3990   18.0060 C   0  0  0  0  0  0  0  0  0  0  0  0
    5.4180    8.7430   17.6840 S   0  0  0  0  0  0  0  0  0  0  0  0
    6.1670    9.9450   17.4370 O   0  0  0  0  0  0  0  0  0  0  0  0
    4.3860    8.7950   18.6850 O   0  0  0  0  0  0  0  0  0  0  0  0
  8  7  2  0
  9  7  2  0
  7  5  1  0
  5  4  1  0
  4  3  1  0
  6  3  1  0
  7  6  1  0
  3  2  1  6
  2  1  3  0
M  END
