CHIKV_MacB-x0404_A_401_1_CHIKV_MacB-x0300+A+401+1
     RDKit          3D

 11 11  0  0  0  0  0  0  0  0999 V2000
   14.4940   11.3570   10.4720 O   0  0  0  0  0  0  0  0  0  0  0  0
   14.4340   11.9950   11.5340 C   0  0  0  0  0  0  0  0  0  0  0  0
   14.1670   13.2950   11.5870 N   0  0  0  0  0  0  0  0  0  0  0  0
   14.6390   11.3110   12.8400 C   0  0  0  0  0  0  0  0  0  0  0  0
   15.0760    9.9950   13.0680 C   0  0  0  0  0  0  0  0  0  0  0  0
   14.3530   11.9370   13.9650 N   0  0  0  0  0  0  0  0  0  0  0  0
   14.6060   10.9800   14.9850 O   0  0  0  0  0  0  0  0  0  0  0  0
   15.0290    9.8390   14.4000 C   0  0  0  0  0  0  0  0  0  0  0  0
   15.3040    8.7070   15.3220 C   0  0  0  0  0  0  0  0  0  0  0  0
   14.8450    7.4960   14.7480 O   0  0  0  0  0  0  0  0  0  0  0  0
   15.8870    6.7500   14.1360 C   0  0  0  0  0  0  0  0  0  0  0  0
 11 10  1  0
 10  9  1  0
  9  8  1  0
  8  5  2  0
  5  4  1  0
  6  4  2  0
  7  6  1  0
  8  7  1  0
  4  2  1  0
  2  1  2  0
  3  2  1  0
M  END
