CHIKV_MacB-x0760_C_308_1_CHIKV_MacB-x0300+A+401+1
     RDKit          3D

 13 14  0  0  0  0  0  0  0  0999 V2000
   14.6540    0.5290   15.8340 O   0  0  0  0  0  0  0  0  0  0  0  0
   15.8610    0.7680   15.7660 C   0  0  0  0  0  0  0  0  0  0  0  0
   16.5450    1.8640   14.9890 C   0  0  0  0  0  0  0  0  0  0  0  0
   17.9740    1.5540   15.3120 C   0  0  0  0  0  0  0  0  0  0  0  0
   19.1360    2.3080   14.7610 C   0  0  0  0  0  0  0  0  0  0  0  0
   16.8730    0.0600   16.3980 N   0  0  0  0  0  0  0  0  0  0  0  0
   18.1320    0.5610   16.0960 N   0  0  0  0  0  0  0  0  0  0  0  0
   16.7800   -1.0690   17.2680 C   0  0  0  0  0  0  0  0  0  0  0  0
   17.7670   -2.0410   17.2550 C   0  0  0  0  0  0  0  0  0  0  0  0
   17.6670   -3.1260   18.1120 C   0  0  0  0  0  0  0  0  0  0  0  0
   16.6070   -3.2290   18.9800 C   0  0  0  0  0  0  0  0  0  0  0  0
   15.6360   -2.2640   18.9940 C   0  0  0  0  0  0  0  0  0  0  0  0
   15.7060   -1.1860   18.1360 C   0  0  0  0  0  0  0  0  0  0  0  0
  5  4  1  0
  4  7  2  0
  7  6  1  0
  6  2  1  0
  2  1  2  0
  3  2  1  0
  4  3  1  0
  8  6  1  0
  8 13  2  0
 13 12  1  0
 12 11  2  0
 11 10  1  0
 10  9  2  0
  9  8  1  0
M  END
