CHIKV_MacB-x1423_C_304_1_CHIKV_MacB-x0300+A+401+1
     RDKit          3D

 11 12  0  0  0  0  0  0  0  0999 V2000
   15.6770    9.5840   11.1220 C   0  0  0  0  0  0  0  0  0  0  0  0
   15.6450   10.3180    9.9520 C   0  0  0  0  0  0  0  0  0  0  0  0
   15.0850   11.5290    9.8490 N   0  0  0  0  0  0  0  0  0  0  0  0
   14.5400   12.0400   10.9590 C   0  0  0  0  0  0  0  0  0  0  0  0
   14.5230   11.3840   12.1760 C   0  0  0  0  0  0  0  0  0  0  0  0
   15.0920   10.1180   12.2630 C   0  0  0  0  0  0  0  0  0  0  0  0
   15.0190    9.3410   13.5080 C   0  0  0  0  0  0  0  0  0  0  0  0
   14.9590    7.9880   13.5540 N   0  0  0  0  0  0  0  0  0  0  0  0
   14.8760    7.6310   14.8720 C   0  0  0  0  0  0  0  0  0  0  0  0
   14.9810    9.8600   14.7290 N   0  0  0  0  0  0  0  0  0  0  0  0
   14.8880    8.7880   15.5810 C   0  0  0  0  0  0  0  0  0  0  0  0
 11  9  2  0
  9  8  1  0
  8  7  1  0
 10  7  2  0
 11 10  1  0
  7  6  1  0
  6  5  2  0
  5  4  1  0
  4  3  2  0
  3  2  1  0
  2  1  2  0
  6  1  1  0
M  END
