CHIKV_MacB-x1268_D_306_1_CHIKV_MacB-x0300+A+401+1
     RDKit          3D

  9  9  0  0  0  0  0  0  0  0999 V2000
   16.6300    9.5090   10.1500 O   0  0  0  0  0  0  0  0  0  0  0  0
   15.2240    9.3620   10.3420 S   0  0  0  0  0  0  0  0  0  0  0  0
   14.3360    9.3400    9.2260 O   0  0  0  0  0  0  0  0  0  0  0  0
   14.9710    8.0520   11.1990 N   0  0  0  0  0  0  0  0  0  0  0  0
   14.7750   10.7030   11.3440 C   0  0  0  0  0  0  0  0  0  0  0  0
   14.5950   10.6870   12.6790 N   0  0  0  0  0  0  0  0  0  0  0  0
   14.2620   11.9510   13.0680 C   0  0  0  0  0  0  0  0  0  0  0  0
   14.2490   12.6970   11.9350 C   0  0  0  0  0  0  0  0  0  0  0  0
   14.5730   11.9100   10.8520 N   0  0  0  0  0  0  0  0  0  0  0  0
  4  2  1  0
  3  2  2  0
  2  1  2  0
  5  2  1  0
  5  9  2  0
  9  8  1  0
  8  7  2  0
  7  6  1  0
  6  5  1  0
M  END
