CHIKV_MacB-x0894_C_309_1_CHIKV_MacB-x0300+A+401+1
     RDKit          3D

 10 11  0  0  0  0  0  0  0  0999 V2000
   15.1850    9.8110   14.8490 Cl  0  0  0  0  0  0  0  0  0  0  0  0
   15.2190    9.6450   13.1240 C   0  0  0  0  0  0  0  0  0  0  0  0
   15.0090   10.7560   12.3170 C   0  0  0  0  0  0  0  0  0  0  0  0
   14.5980   12.0380   12.5890 N   0  0  0  0  0  0  0  0  0  0  0  0
   14.4240   12.6400   11.3880 C   0  0  0  0  0  0  0  0  0  0  0  0
   14.6900   11.8600   10.3560 N   0  0  0  0  0  0  0  0  0  0  0  0
   15.0620   10.6380   10.9240 C   0  0  0  0  0  0  0  0  0  0  0  0
   15.3580    9.3930   10.3600 C   0  0  0  0  0  0  0  0  0  0  0  0
   15.5590    8.2870   11.1850 C   0  0  0  0  0  0  0  0  0  0  0  0
   15.4850    8.4060   12.5670 C   0  0  0  0  0  0  0  0  0  0  0  0
  2  1  1  0
  2 10  2  0
 10  9  1  0
  9  8  2  0
  8  7  1  0
  7  6  1  0
  6  5  2  0
  5  4  1  0
  4  3  1  0
  3  2  1  0
  7  3  2  0
M  END
