CHIKV_MacB-x0934_A_304_1_CHIKV_MacB-x0300+A+401+1
     RDKit          3D

 15 15  0  0  0  0  0  0  0  0999 V2000
   16.0590    3.9560   15.9620 O   0  0  0  0  0  0  0  0  0  0  0  0
   16.3780    3.6650   14.8000 C   0  0  0  0  0  0  0  0  0  0  0  0
   16.2540    4.5050   13.7870 N   0  0  0  0  0  0  0  0  0  0  0  0
   16.9890    2.3200   14.4670 C   0  0  0  0  0  0  0  0  0  0  0  0
   17.0650    1.3590   15.5460 N   0  0  0  0  0  0  0  0  0  0  0  0
   15.9880    0.7050   15.9940 C   0  0  0  0  0  0  0  0  0  0  0  0
   14.8610    0.9180   15.5500 O   0  0  0  0  0  0  0  0  0  0  0  0
   16.2050   -0.3190   17.0670 C   0  0  0  0  0  0  0  0  0  0  0  0
   15.1970   -0.5620   18.0000 C   0  0  0  0  0  0  0  0  0  0  0  0
   15.3340   -1.5550   18.9530 C   0  0  0  0  0  0  0  0  0  0  0  0
   17.3590   -1.0870   17.1180 C   0  0  0  0  0  0  0  0  0  0  0  0
   17.5030   -2.0840   18.0690 C   0  0  0  0  0  0  0  0  0  0  0  0
   16.4850   -2.3260   18.9770 C   0  0  0  0  0  0  0  0  0  0  0  0
   16.4860   -3.3370   19.9030 O   0  0  0  0  0  0  0  0  0  0  0  0
   17.5830   -4.2510   19.9020 C   0  0  0  0  0  0  0  0  0  0  0  0
 15 14  1  0
 14 13  1  0
 13 10  2  0
 10  9  1  0
  9  8  2  0
 11  8  1  0
 12 11  2  0
 13 12  1  0
  8  6  1  0
  7  6  2  0
  6  5  1  0
  5  4  1  0
  4  2  1  0
  2  1  2  0
  3  2  1  0
M  END
