CHIKV_MacB-x0997_C_401_1_CHIKV_MacB-x0300+A+401+1
     RDKit          3D

 17 18  0  0  0  0  0  0  0  0999 V2000
   15.9250   -2.6270   19.8030 F   0  0  0  0  0  0  0  0  0  0  0  0
   16.9350   -2.4260   18.9300 C   0  0  0  0  0  0  0  0  0  0  0  0
   18.1810   -2.8840   19.2540 C   0  0  0  0  0  0  0  0  0  0  0  0
   19.2090   -2.6730   18.3540 C   0  0  0  0  0  0  0  0  0  0  0  0
   16.6660   -1.7730   17.7610 C   0  0  0  0  0  0  0  0  0  0  0  0
   17.7060   -1.5660   16.8750 C   0  0  0  0  0  0  0  0  0  0  0  0
   18.9880   -2.0170   17.1510 C   0  0  0  0  0  0  0  0  0  0  0  0
   20.0950   -1.8660   16.1370 C   0  0  0  0  0  0  0  0  0  0  0  0
   20.8960   -0.5380   16.2290 C   0  0  1  0  0  0  0  0  0  0  0  0
   19.9960    0.6920   16.1790 C   0  0  0  0  0  0  0  0  0  0  0  0
   19.2910    0.7470   15.0480 O   0  0  0  0  0  0  0  0  0  0  0  0
   18.5030    1.9470   14.8340 C   0  0  0  0  0  0  0  0  0  0  0  0
   19.9280    1.5200   17.0460 O   0  0  0  0  0  0  0  0  0  0  0  0
   21.7990   -0.5120   17.4760 C   0  0  0  0  0  0  0  0  0  0  0  0
   23.0310    0.2790   17.0260 C   0  0  0  0  0  0  0  0  0  0  0  0
   23.2350   -0.1090   15.6110 N   0  0  0  0  0  0  0  0  0  0  0  0
   21.9350   -0.5390   15.0830 C   0  0  0  0  0  0  0  0  0  0  0  0
 13 10  2  0
 11 10  1  0
 12 11  1  0
 10  9  1  0
  9  8  1  1
  8  7  1  0
  7  4  2  0
  4  3  1  0
  3  2  2  0
  2  1  1  0
  5  2  1  0
  6  5  2  0
  7  6  1  0
  9 17  1  0
 17 16  1  0
 16 15  1  0
 15 14  1  0
 14  9  1  0
M  END
