CHIKV_MacB-x1118_A_304_1_CHIKV_MacB-x0300+A+401+1
     RDKit          3D

  7  7  0  0  0  0  0  0  0  0999 V2000
   18.7420    4.3940   11.5220 O   0  0  0  0  0  0  0  0  0  0  0  0
   17.7450    3.8110   12.1560 C   0  0  0  0  0  0  0  0  0  0  0  0
   17.9940    3.3360   13.3990 N   0  0  0  0  0  0  0  0  0  0  0  0
   16.9680    2.7940   14.0690 C   0  0  0  0  0  0  0  0  0  0  0  0
   15.6900    2.7090   13.5700 C   0  0  0  0  0  0  0  0  0  0  0  0
   15.4530    3.1950   12.3000 C   0  0  0  0  0  0  0  0  0  0  0  0
   16.4860    3.7450   11.5590 C   0  0  0  0  0  0  0  0  0  0  0  0
  2  1  1  0
  2  7  2  0
  7  6  1  0
  6  5  2  0
  5  4  1  0
  4  3  2  0
  3  2  1  0
M  END
