CHIKV_MacB-x1213_C_401_1_CHIKV_MacB-x0300+A+401+1
     RDKit          3D

 10 11  0  0  0  0  0  0  0  0999 V2000
   14.9770    9.7900    9.6690 C   0  0  0  0  0  0  0  0  0  0  0  0
   14.7900    8.3400   10.0880 C   0  0  0  0  0  0  0  0  0  0  0  0
   14.6600   10.7560   10.7720 C   0  0  0  0  0  0  0  0  0  0  0  0
   14.6750   10.3170   12.1090 C   0  0  0  0  0  0  0  0  0  0  0  0
   14.9460    9.0090   12.4530 N   0  0  0  0  0  0  0  0  0  0  0  0
   15.2630    7.9820   11.4720 C   0  0  0  0  0  0  0  0  0  0  0  0
   14.3670   12.0130   10.4040 N   0  0  0  0  0  0  0  0  0  0  0  0
   14.0830   12.8890   11.3780 C   0  0  0  0  0  0  0  0  0  0  0  0
   14.0840   12.5640   12.7180 C   0  0  0  0  0  0  0  0  0  0  0  0
   14.3800   11.2610   13.0950 C   0  0  0  0  0  0  0  0  0  0  0  0
  2  6  1  0
  6  5  1  0
  5  4  1  0
  4 10  2  0
 10  9  1  0
  9  8  2  0
  8  7  1  0
  7  3  2  0
  4  3  1  0
  3  1  1  0
  2  1  1  0
M  END
