CHIKV_MacB-x1145_C_311_1_CHIKV_MacB-x0300+A+401+1
     RDKit          3D

  6  6  0  0  0  0  0  0  0  0999 V2000
    5.9600    6.3840   15.8340 N   0  0  0  0  0  0  0  0  0  0  0  0
    5.8760    7.4610   16.6210 C   0  0  0  0  0  0  0  0  0  0  0  0
    6.8770    7.8920   17.3590 N   0  0  0  0  0  0  0  0  0  0  0  0
    6.3800    8.9830   17.9870 N   0  0  0  0  0  0  0  0  0  0  0  0
    5.1090    9.2300   17.6450 C   0  0  0  0  0  0  0  0  0  0  0  0
    4.7290    8.2650   16.7540 C   0  0  0  0  0  0  0  0  0  0  0  0
  2  1  1  0
  2  6  1  0
  6  5  2  0
  5  4  1  0
  4  3  1  0
  3  2  2  0
M  END
