CHIKV_MacB-x1151_A_306_1_CHIKV_MacB-x0300+A+401+1
     RDKit          3D

  6  6  0  0  0  0  0  0  0  0999 V2000
   15.0270   10.9160   14.4630 O   0  0  0  0  0  0  0  0  0  0  0  0
   14.7250   11.4040   13.3730 C   0  0  0  0  0  0  0  0  0  0  0  0
   14.1240   12.5860   13.1860 N   0  0  0  0  0  0  0  0  0  0  0  0
   13.8630   12.8620   11.7800 C   0  0  0  0  0  0  0  0  0  0  0  0
   14.5220   11.6790   11.0740 C   0  0  0  0  0  0  0  0  0  0  0  0
   14.9440   10.8350   12.1850 N   0  0  0  0  0  0  0  0  0  0  0  0
  2  1  2  0
  2  6  1  0
  6  5  1  0
  5  4  1  0
  4  3  1  0
  3  2  1  0
M  END
