CHIKV_MacB-x1125_C_401_1_CHIKV_MacB-x1125+C+401+1
     RDKit          3D

  6  5  0  0  0  0  0  0  0  0999 V2000
   14.5920   -3.1800   -6.0040 N   0  0  0  0  0  0  0  0  0  0  0  0
   15.6130   -2.8120   -6.3340 C   0  0  0  0  0  0  0  0  0  0  0  0
   16.9650   -2.4520   -6.7480 C   0  0  0  0  0  0  0  0  0  0  0  0
   17.1170   -0.9440   -6.8840 C   0  0  0  0  0  0  0  0  0  0  0  0
   16.1340   -0.2150   -7.0320 O   0  0  0  0  0  0  0  0  0  0  0  0
   18.3560   -0.4750   -6.8340 N   0  0  0  0  0  0  0  0  0  0  0  0
  6  4  1  0
  5  4  2  0
  4  3  1  0
  3  2  1  0
  2  1  3  0
M  END
