CHIKV_MacB-x1118_A_305_1_CHIKV_MacB-x0300+A+401+1
     RDKit          3D

  7  7  0  0  0  0  0  0  0  0999 V2000
   14.4290   11.4520    9.9620 O   0  0  0  0  0  0  0  0  0  0  0  0
   14.5240   11.7250   11.2800 C   0  0  0  0  0  0  0  0  0  0  0  0
   14.5110   13.0290   11.6620 N   0  0  0  0  0  0  0  0  0  0  0  0
   14.5290   13.2820   12.9800 C   0  0  0  0  0  0  0  0  0  0  0  0
   14.5530   12.3040   13.9510 C   0  0  0  0  0  0  0  0  0  0  0  0
   14.5790   10.9900   13.5500 C   0  0  0  0  0  0  0  0  0  0  0  0
   14.5710   10.6770   12.1990 C   0  0  0  0  0  0  0  0  0  0  0  0
  2  1  1  0
  2  7  2  0
  7  6  1  0
  6  5  2  0
  5  4  1  0
  4  3  2  0
  3  2  1  0
M  END
