CHIKV_MacB-x0522_B_401_1_CHIKV_MacB-x0300+A+401+1
     RDKit          3D

 14 14  0  0  0  0  0  0  0  0999 V2000
   15.4590    3.2690   18.2150 O   0  0  0  0  0  0  0  0  0  0  0  0
   15.7250    2.5480   17.2670 C   0  0  0  0  0  0  0  0  0  0  0  0
   15.7820    3.0090   16.0070 N   0  0  0  0  0  0  0  0  0  0  0  0
   16.0320    2.2310   14.7960 C   0  0  0  0  0  0  0  0  0  0  0  0
   15.5620    4.4420   15.7870 C   0  0  0  0  0  0  0  0  0  0  0  0
   15.9560    1.0840   17.5280 C   0  0  0  0  0  0  0  0  0  0  0  0
   14.9610    0.3780   18.2070 C   0  0  0  0  0  0  0  0  0  0  0  0
   15.1980   -0.9330   18.5940 C   0  0  0  0  0  0  0  0  0  0  0  0
   16.4150   -1.5070   18.2840 C   0  0  0  0  0  0  0  0  0  0  0  0
   17.3870   -0.8690   17.6150 N   0  0  0  0  0  0  0  0  0  0  0  0
   17.1470    0.3820   17.2550 C   0  0  0  0  0  0  0  0  0  0  0  0
   18.0840    1.0700   16.5680 O   0  0  0  0  0  0  0  0  0  0  0  0
   19.2790    0.3660   16.1760 C   0  0  0  0  0  0  0  0  0  0  0  0
   20.1670    1.3200   15.4650 C   0  0  0  0  0  0  0  0  0  0  0  0
 14 13  1  0
 13 12  1  0
 12 11  1  0
 11 10  2  0
 10  9  1  0
  9  8  2  0
  8  7  1  0
  7  6  2  0
 11  6  1  0
  6  2  1  0
  2  1  2  0
  3  2  1  0
  5  3  1  0
  4  3  1  0
M  END
