CHIKV_MacB-x1125_C_402_1_CHIKV_MacB-x0300+A+401+1
     RDKit          3D

  6  5  0  0  0  0  0  0  0  0999 V2000
   15.7120    3.4310   10.5120 N   0  0  0  0  0  0  0  0  0  0  0  0
   16.0450    3.5380   11.5890 C   0  0  0  0  0  0  0  0  0  0  0  0
   16.5910    3.5640   12.9420 C   0  0  0  0  0  0  0  0  0  0  0  0
   18.1040    3.7220   12.9190 C   0  0  0  0  0  0  0  0  0  0  0  0
   18.7070    4.0070   11.8740 O   0  0  0  0  0  0  0  0  0  0  0  0
   18.7190    3.5440   14.0770 N   0  0  0  0  0  0  0  0  0  0  0  0
  6  4  1  0
  5  4  2  0
  4  3  1  0
  3  2  1  0
  2  1  3  0
M  END
