CHIKV_MacB-x1145_A_305_1_CHIKV_MacB-x0300+A+401+1
     RDKit          3D

  6  6  0  0  0  0  0  0  0  0999 V2000
    5.1270    9.8350   17.4690 N   0  0  0  0  0  0  0  0  0  0  0  0
    5.7530    8.6860   17.2260 C   0  0  0  0  0  0  0  0  0  0  0  0
    7.0600    8.5550   17.1700 N   0  0  0  0  0  0  0  0  0  0  0  0
    7.2480    7.2410   16.9230 N   0  0  0  0  0  0  0  0  0  0  0  0
    6.0910    6.5830   16.8240 C   0  0  0  0  0  0  0  0  0  0  0  0
    5.0900    7.4860   17.0140 C   0  0  0  0  0  0  0  0  0  0  0  0
  2  1  1  0
  2  6  1  0
  6  5  2  0
  5  4  1  0
  4  3  1  0
  3  2  2  0
M  END
