CHIKV_MacB-x1118_C_308_1_CHIKV_MacB-x0692+D+304+1
     RDKit          3D

  7  7  0  0  0  0  0  0  0  0999 V2000
    0.0160   18.8950   -4.2510 O   0  0  0  0  0  0  0  0  0  0  0  0
    0.4960   17.7750   -4.7480 C   0  0  0  0  0  0  0  0  0  0  0  0
    1.8410   17.6910   -4.9330 N   0  0  0  0  0  0  0  0  0  0  0  0
    2.3060   16.5710   -5.5070 C   0  0  0  0  0  0  0  0  0  0  0  0
    1.5010   15.5240   -5.9110 C   0  0  0  0  0  0  0  0  0  0  0  0
    0.1450   15.6220   -5.6960 C   0  0  0  0  0  0  0  0  0  0  0  0
   -0.3870   16.7540   -5.1030 C   0  0  0  0  0  0  0  0  0  0  0  0
  2  1  1  0
  2  7  2  0
  7  6  1  0
  6  5  2  0
  5  4  1  0
  4  3  2  0
  3  2  1  0
M  END
