CHIKV_MacB-x0935_D_304_1_CHIKV_MacB-x0692+D+304+1
     RDKit          3D

 13 13  0  0  0  0  0  0  0  0999 V2000
   -1.3490   17.1220   -5.1330 O   0  0  0  0  0  0  0  0  0  0  0  0
   -1.4860   16.0360   -5.6930 C   0  0  0  0  0  0  0  0  0  0  0  0
   -2.8720   15.4450   -5.8090 C   0  0  0  0  0  0  0  0  0  0  0  0
   -2.7920   14.1920   -6.4530 O   0  0  0  0  0  0  0  0  0  0  0  0
   -4.0800   13.6560   -6.7500 C   0  0  0  0  0  0  0  0  0  0  0  0
   -0.4590   15.3160   -6.2090 N   0  0  0  0  0  0  0  0  0  0  0  0
    0.9050   15.7140   -6.3240 C   0  0  0  0  0  0  0  0  0  0  0  0
    1.6660   15.4170   -7.4520 C   0  0  0  0  0  0  0  0  0  0  0  0
    2.9790   15.8480   -7.5490 C   0  0  0  0  0  0  0  0  0  0  0  0
    3.5450   16.5870   -6.5150 C   0  0  0  0  0  0  0  0  0  0  0  0
    4.8450   17.0140   -6.5890 O   0  0  0  0  0  0  0  0  0  0  0  0
    2.7930   16.8860   -5.3900 C   0  0  0  0  0  0  0  0  0  0  0  0
    1.4860   16.4450   -5.2910 C   0  0  0  0  0  0  0  0  0  0  0  0
  5  4  1  0
  4  3  1  0
  3  2  1  0
  2  1  2  0
  6  2  1  0
  7  6  1  0
  7 13  2  0
 13 12  1  0
 12 10  2  0
 11 10  1  0
 10  9  1  0
  9  8  2  0
  8  7  1  0
M  END
