CHIKV_MacB-x0543_B_308_1_CHIKV_MacB-x0300+A+401+1
     RDKit          3D

 16 17  0  0  0  0  0  0  0  0999 V2000
   23.5010   15.4130    8.4520 O   0  0  0  0  0  0  0  0  0  0  0  0
   24.5960   14.9170    8.2140 C   0  0  0  0  0  0  0  0  0  0  0  0
   25.7340   15.2940    9.1110 C   0  0  0  0  0  0  0  0  0  0  0  0
   25.3420   15.7800   10.3330 O   0  0  0  0  0  0  0  0  0  0  0  0
   26.5010   16.0970   11.0030 C   0  0  0  0  0  0  0  0  0  0  0  0
   27.5660   15.8310   10.2530 C   0  0  0  0  0  0  0  0  0  0  0  0
   27.0830   15.3080    9.0220 C   0  0  0  0  0  0  0  0  0  0  0  0
   24.7840   14.0530    7.1970 N   0  0  0  0  0  0  0  0  0  0  0  0
   25.9640   13.2170    6.9320 C   0  0  0  0  0  0  0  0  0  0  0  0
   25.5430   11.8330    6.4610 C   0  0  0  0  0  0  0  0  0  0  0  0
   23.6930   13.8520    6.2380 C   0  0  0  0  0  0  0  0  0  0  0  0
   24.2170   13.2540    4.9590 C   0  0  0  0  0  0  0  0  0  0  0  0
   24.7770   11.9230    5.2110 N   0  0  0  0  0  0  0  0  0  0  0  0
   24.3550   10.7530    4.5030 C   0  0  0  0  0  0  0  0  0  0  0  0
   24.8140    9.6580    4.8530 O   0  0  0  0  0  0  0  0  0  0  0  0
   23.4740   10.8830    3.5050 N   0  0  0  0  0  0  0  0  0  0  0  0
 16 14  1  0
 15 14  2  0
 14 13  1  0
 13 10  1  0
 10  9  1  0
  9  8  1  0
 11  8  1  0
 12 11  1  0
 13 12  1  0
  8  2  1  0
  2  1  2  0
  3  2  1  0
  3  7  2  0
  7  6  1  0
  6  5  2  0
  5  4  1  0
  4  3  1  0
M  END
