CHIKV_MacB-x1316_A_401_1_CHIKV_MacB-x0300+A+401+1
     RDKit          3D

 11 11  0  0  0  0  0  0  0  0999 V2000
   14.2540   11.4270    9.8960 O   0  0  0  0  0  0  0  0  0  0  0  0
   14.5390   10.7750   10.8720 C   0  0  0  0  0  0  0  0  0  0  0  0
   14.7510    9.4610   10.8400 O   0  0  0  0  0  0  0  0  0  0  0  0
   14.7250    8.8340    9.5300 C   0  0  0  0  0  0  0  0  0  0  0  0
   14.6790   11.3390   12.2420 C   0  0  0  0  0  0  0  0  0  0  0  0
   14.9850   10.5430   13.3510 C   0  0  0  0  0  0  0  0  0  0  0  0
   15.0890   11.1000   14.6140 C   0  0  0  0  0  0  0  0  0  0  0  0
   14.9010   12.4670   14.7850 C   0  0  0  0  0  0  0  0  0  0  0  0
   15.0210   13.0700   16.0060 O   0  0  0  0  0  0  0  0  0  0  0  0
   14.5990   13.2650   13.6930 C   0  0  0  0  0  0  0  0  0  0  0  0
   14.4890   12.7050   12.4340 C   0  0  0  0  0  0  0  0  0  0  0  0
  4  3  1  0
  3  2  1  0
  2  1  2  0
  5  2  1  0
  5 11  2  0
 11 10  1  0
 10  8  2  0
  9  8  1  0
  8  7  1  0
  7  6  2  0
  6  5  1  0
M  END
