CHIKV_MacB-x1379_C_501_1_CHIKV_MacB-x0300+A+401+1
     RDKit          3D

 12 13  0  0  0  0  0  0  0  0999 V2000
   23.1160   12.6220    9.0940 O   0  0  0  0  0  0  0  0  0  0  0  0
   22.7180   13.1720   10.3380 C   0  0  0  0  0  0  0  0  0  0  0  0
   21.3380   12.7140   10.7370 C   0  0  0  0  0  0  0  0  0  0  0  0
   20.5800   13.4420   11.6550 C   0  0  0  0  0  0  0  0  0  0  0  0
   21.1690   14.5480   12.2080 O   0  0  0  0  0  0  0  0  0  0  0  0
   20.4650   15.1430   13.3140 C   0  0  0  0  0  0  0  0  0  0  0  0
   18.9780   15.1030   13.1080 C   0  0  0  0  0  0  0  0  0  0  0  0
   18.5180   13.7610   12.8820 O   0  0  0  0  0  0  0  0  0  0  0  0
   19.2810   13.0490   11.9910 C   0  0  0  0  0  0  0  0  0  0  0  0
   18.7310   11.9150   11.4180 C   0  0  0  0  0  0  0  0  0  0  0  0
   19.4810   11.1810   10.5130 C   0  0  0  0  0  0  0  0  0  0  0  0
   20.7700   11.5710   10.1800 C   0  0  0  0  0  0  0  0  0  0  0  0
  2  1  1  0
  3  2  1  0
  3 12  2  0
 12 11  1  0
 11 10  2  0
 10  9  1  0
  9  8  1  0
  8  7  1  0
  7  6  1  0
  6  5  1  0
  5  4  1  0
  4  3  1  0
  9  4  2  0
M  END
