CHIKV_MacB-x0839_A_401_1_CHIKV_MacB-x0300+A+401+1
     RDKit          3D

 12 13  0  0  0  0  0  0  0  0999 V2000
   14.9850   12.8950   15.2090 C   0  0  0  0  0  0  0  0  0  0  0  0
   14.7110   13.2430   13.8300 N   0  0  0  0  0  0  0  0  0  0  0  0
   14.6970   12.3320   12.8150 C   0  0  0  0  0  0  0  0  0  0  0  0
   14.9180   11.0630   13.1180 N   0  0  0  0  0  0  0  0  0  0  0  0
   14.9050   10.1760   12.0740 C   0  0  0  0  0  0  0  0  0  0  0  0
   14.7070   10.6130   10.7460 C   0  0  0  0  0  0  0  0  0  0  0  0
   14.4790   11.9330   10.4620 N   0  0  0  0  0  0  0  0  0  0  0  0
   14.4640   12.7590   11.4830 C   0  0  0  0  0  0  0  0  0  0  0  0
   15.0160    8.7910   12.3320 C   0  0  0  0  0  0  0  0  0  0  0  0
   14.9460    7.8940   11.3040 C   0  0  0  0  0  0  0  0  0  0  0  0
   14.7720    8.3270    9.9930 C   0  0  0  0  0  0  0  0  0  0  0  0
   14.6600    9.6590    9.7060 C   0  0  0  0  0  0  0  0  0  0  0  0
  2  1  1  0
  3  2  1  0
  3  8  2  0
  8  7  1  0
  7  6  2  0
  6 12  1  0
 12 11  2  0
 11 10  1  0
 10  9  2  0
  9  5  1  0
  6  5  1  0
  5  4  2  0
  4  3  1  0
M  END
