CHIKV_MacB-x0969_D_501_1_CHIKV_MacB-x0300+A+401+1
     RDKit          3D

 11 12  0  0  0  0  0  0  0  0999 V2000
   17.9320   14.3280   14.4220 O   0  0  0  0  0  0  0  0  0  0  0  0
   18.0350   14.6440   13.0420 C   0  0  0  0  0  0  0  0  0  0  0  0
   18.8320   13.6220   12.2690 C   0  0  0  0  0  0  0  0  0  0  0  0
   20.1920   13.8080   12.0510 C   0  0  0  0  0  0  0  0  0  0  0  0
   20.9210   12.9190   11.2700 C   0  0  0  0  0  0  0  0  0  0  0  0
   22.3650   12.9040   10.8580 C   0  0  0  0  0  0  0  0  0  0  0  0
   22.3630   11.8150    9.8040 C   0  0  0  0  0  0  0  0  0  0  0  0
   21.1240   11.0590    9.9520 O   0  0  0  0  0  0  0  0  0  0  0  0
   20.2780   11.8330   10.7140 C   0  0  0  0  0  0  0  0  0  0  0  0
   18.9260   11.6050   10.9200 C   0  0  0  0  0  0  0  0  0  0  0  0
   18.2170   12.5040   11.7040 C   0  0  0  0  0  0  0  0  0  0  0  0
  2  1  1  0
  3  2  1  0
  3 11  2  0
 11 10  1  0
 10  9  2  0
  9  8  1  0
  8  7  1  0
  7  6  1  0
  6  5  1  0
  9  5  1  0
  5  4  2  0
  4  3  1  0
M  END
