CHIKV_MacB-x1379_A_306_1_CHIKV_MacB-x0300+A+401+1
     RDKit          3D

 12 13  0  0  0  0  0  0  0  0999 V2000
   23.0820   13.2350   12.4190 O   0  0  0  0  0  0  0  0  0  0  0  0
   22.5600   12.6090   11.2550 C   0  0  0  0  0  0  0  0  0  0  0  0
   21.0610   12.4550   11.2980 C   0  0  0  0  0  0  0  0  0  0  0  0
   20.2600   13.3390   12.0240 C   0  0  0  0  0  0  0  0  0  0  0  0
   20.8920   14.3530   12.6940 O   0  0  0  0  0  0  0  0  0  0  0  0
   20.0740   15.0410   13.6550 C   0  0  0  0  0  0  0  0  0  0  0  0
   18.7170   15.2940   13.1150 C   0  0  0  0  0  0  0  0  0  0  0  0
   18.0680   14.0660   12.7510 O   0  0  0  0  0  0  0  0  0  0  0  0
   18.8710   13.1900   12.0650 C   0  0  0  0  0  0  0  0  0  0  0  0
   18.2680   12.1430   11.3860 C   0  0  0  0  0  0  0  0  0  0  0  0
   19.0570   11.2590   10.6620 C   0  0  0  0  0  0  0  0  0  0  0  0
   20.4330   11.4160   10.6150 C   0  0  0  0  0  0  0  0  0  0  0  0
  2  1  1  0
  3  2  1  0
  3 12  2  0
 12 11  1  0
 11 10  2  0
 10  9  1  0
  9  8  1  0
  8  7  1  0
  7  6  1  0
  6  5  1  0
  5  4  1  0
  4  3  1  0
  9  4  2  0
M  END
