CHIKV_MacB-x0839_C_308_1_CHIKV_MacB-x0300+A+401+1
     RDKit          3D

 12 13  0  0  0  0  0  0  0  0999 V2000
   14.7960   13.1370   14.9420 C   0  0  0  0  0  0  0  0  0  0  0  0
   14.8010   13.4260   13.5230 N   0  0  0  0  0  0  0  0  0  0  0  0
   14.7850   12.4590   12.5550 C   0  0  0  0  0  0  0  0  0  0  0  0
   14.7990   11.1880   12.9320 N   0  0  0  0  0  0  0  0  0  0  0  0
   14.8440   10.2610   11.9250 C   0  0  0  0  0  0  0  0  0  0  0  0
   14.8650   10.6540   10.5700 C   0  0  0  0  0  0  0  0  0  0  0  0
   14.8270   11.9760   10.2150 N   0  0  0  0  0  0  0  0  0  0  0  0
   14.7840   12.8460   11.1960 C   0  0  0  0  0  0  0  0  0  0  0  0
   14.8520    8.8840   12.2410 C   0  0  0  0  0  0  0  0  0  0  0  0
   14.8770    7.9510   11.2430 C   0  0  0  0  0  0  0  0  0  0  0  0
   14.8930    8.3390    9.9100 C   0  0  0  0  0  0  0  0  0  0  0  0
   14.8970    9.6640    9.5660 C   0  0  0  0  0  0  0  0  0  0  0  0
  2  1  1  0
  3  2  1  0
  3  8  2  0
  8  7  1  0
  7  6  2  0
  6 12  1  0
 12 11  2  0
 11 10  1  0
 10  9  2  0
  9  5  1  0
  6  5  1  0
  5  4  2  0
  4  3  1  0
M  END
