CHIKV_MacB-x0864_A_501_1_CHIKV_MacB-x0300+A+401+1
     RDKit          3D

 14 16  0  0  0  0  0  0  0  0999 V2000
   16.9720   15.3880   15.2100 C   0  0  0  0  0  0  0  0  0  0  0  0
   18.0560   14.6220   14.8840 C   0  0  0  0  0  0  0  0  0  0  0  0
   16.2560   15.5690   14.0930 N   0  0  0  0  0  0  0  0  0  0  0  0
   16.8200   14.9520   13.0290 N   0  0  0  0  0  0  0  0  0  0  0  0
   17.9240   14.3620   13.5070 C   0  0  0  0  0  0  0  0  0  0  0  0
   18.7750   13.5350   12.6350 C   0  0  0  0  0  0  0  0  0  0  0  0
   18.2030   12.5540   11.8110 C   0  0  0  0  0  0  0  0  0  0  0  0
   18.9880   11.7500   10.9980 C   0  0  0  0  0  0  0  0  0  0  0  0
   20.1600   13.7120   12.6350 C   0  0  0  0  0  0  0  0  0  0  0  0
   20.9280   12.9020   11.8250 C   0  0  0  0  0  0  0  0  0  0  0  0
   20.3570   11.9430   11.0230 C   0  0  0  0  0  0  0  0  0  0  0  0
   21.3370   11.2600   10.3380 O   0  0  0  0  0  0  0  0  0  0  0  0
   22.2990   12.8690   11.6950 O   0  0  0  0  0  0  0  0  0  0  0  0
   22.5680   11.6930   10.9230 C   0  0  0  0  0  0  0  0  0  0  0  0
 14 12  1  0
 12 11  1  0
 11  8  1  0
  8  7  2  0
  7  6  1  0
  9  6  2  0
 10  9  1  0
 11 10  2  0
 13 10  1  0
 14 13  1  0
  6  5  1  0
  5  2  1  0
  2  1  2  0
  3  1  1  0
  4  3  1  0
  5  4  2  0
M  END
