CHIKV_MacB-x1203_C_309_1_CHIKV_MacB-x0300+A+401+1
     RDKit          3D

 11 12  0  0  0  0  0  0  0  0999 V2000
   14.2120   13.6020   11.6160 N   0  0  0  0  0  0  0  0  0  0  0  0
   14.4710   12.3130   11.4130 C   0  0  0  0  0  0  0  0  0  0  0  0
   14.4530   11.7200   10.2380 N   0  0  0  0  0  0  0  0  0  0  0  0
   14.7500   10.3820   10.4960 C   0  0  0  0  0  0  0  0  0  0  0  0
   14.9510   10.1920   11.8600 C   0  0  0  0  0  0  0  0  0  0  0  0
   14.7720   11.4370   12.4380 N   0  0  0  0  0  0  0  0  0  0  0  0
   14.8640   11.7060   13.8690 C   0  0  0  0  0  0  0  0  0  0  0  0
   15.2140    8.9440   12.4080 C   0  0  0  0  0  0  0  0  0  0  0  0
   15.2650    7.8610   11.5390 C   0  0  0  0  0  0  0  0  0  0  0  0
   15.0580    8.0310   10.1710 C   0  0  0  0  0  0  0  0  0  0  0  0
   14.8100    9.2890    9.6330 C   0  0  0  0  0  0  0  0  0  0  0  0
  7  6  1  0
  6  2  1  0
  2  1  1  0
  3  2  2  0
  4  3  1  0
  4 11  2  0
 11 10  1  0
 10  9  2  0
  9  8  1  0
  8  5  2  0
  6  5  1  0
  5  4  1  0
M  END
