CHIKV_MacB-x0760_B_304_1_CHIKV_MacB-x0300+A+401+1
     RDKit          3D

 13 14  0  0  0  0  0  0  0  0999 V2000
   14.5640    0.5540   15.9640 O   0  0  0  0  0  0  0  0  0  0  0  0
   15.7700    0.7810   15.9220 C   0  0  0  0  0  0  0  0  0  0  0  0
   16.4850    1.8090   15.0850 C   0  0  0  0  0  0  0  0  0  0  0  0
   17.8980    1.4380   15.4020 C   0  0  0  0  0  0  0  0  0  0  0  0
   19.0870    2.0370   14.7250 C   0  0  0  0  0  0  0  0  0  0  0  0
   16.7400    0.0910   16.6210 N   0  0  0  0  0  0  0  0  0  0  0  0
   18.0170    0.5130   16.2730 N   0  0  0  0  0  0  0  0  0  0  0  0
   16.5800   -0.9870   17.5480 C   0  0  0  0  0  0  0  0  0  0  0  0
   15.4560   -1.0370   18.3780 C   0  0  0  0  0  0  0  0  0  0  0  0
   15.2840   -2.1150   19.2350 C   0  0  0  0  0  0  0  0  0  0  0  0
   16.2160   -3.1350   19.2720 C   0  0  0  0  0  0  0  0  0  0  0  0
   17.3200   -3.0890   18.4470 C   0  0  0  0  0  0  0  0  0  0  0  0
   17.5130   -2.0170   17.5860 C   0  0  0  0  0  0  0  0  0  0  0  0
  5  4  1  0
  4  7  2  0
  7  6  1  0
  6  2  1  0
  2  1  2  0
  3  2  1  0
  4  3  1  0
  8  6  1  0
  8 13  2  0
 13 12  1  0
 12 11  2  0
 11 10  1  0
 10  9  2  0
  9  8  1  0
M  END
