CHIKV_MacB-x1397_A_304_1_CHIKV_MacB-x0300+A+401+1
     RDKit          3D

  9 10  0  0  0  0  0  0  0  0999 V2000
   17.7060   12.6670   12.0510 C   0  0  0  0  0  0  0  0  0  0  0  0
   17.3880   13.7540   12.8540 C   0  0  0  0  0  0  0  0  0  0  0  0
   18.3640   14.6800   13.2140 C   0  0  0  0  0  0  0  0  0  0  0  0
   19.6760   14.5320   12.7800 C   0  0  0  0  0  0  0  0  0  0  0  0
   19.0160   12.4970   11.5970 C   0  0  0  0  0  0  0  0  0  0  0  0
   19.7210   11.5670   10.7860 C   0  0  0  0  0  0  0  0  0  0  0  0
   19.9890   13.4400   11.9750 C   0  0  0  0  0  0  0  0  0  0  0  0
   21.1550   13.0390   11.4040 N   0  0  0  0  0  0  0  0  0  0  0  0
   20.9950   11.8940   10.6770 N   0  0  0  0  0  0  0  0  0  0  0  0
  6  9  2  0
  9  8  1  0
  8  7  1  0
  7  4  1  0
  4  3  2  0
  3  2  1  0
  2  1  2  0
  5  1  1  0
  6  5  1  0
  7  5  2  0
M  END
