CHIKV_MacB-x1331_D_306_1_CHIKV_MacB-x0300+A+401+1
     RDKit          3D

 11 12  0  0  0  0  0  0  0  0999 V2000
   18.6090    4.6010   11.6620 O   0  0  0  0  0  0  0  0  0  0  0  0
   17.6700    4.0220   12.2400 C   0  0  0  0  0  0  0  0  0  0  0  0
   16.4990    3.3610   11.5610 C   0  0  0  0  0  0  0  0  0  0  0  0
   16.2430    3.2160   10.3520 O   0  0  0  0  0  0  0  0  0  0  0  0
   17.4200    3.8450   13.6470 C   0  0  0  0  0  0  0  0  0  0  0  0
   16.2050    3.1590   13.8360 C   0  0  0  0  0  0  0  0  0  0  0  0
   15.6700    2.8770   12.5870 N   0  0  0  0  0  0  0  0  0  0  0  0
   18.1580    4.2140   14.7690 C   0  0  0  0  0  0  0  0  0  0  0  0
   17.6840    3.9030   16.0390 C   0  0  0  0  0  0  0  0  0  0  0  0
   16.4790    3.2290   16.2040 C   0  0  0  0  0  0  0  0  0  0  0  0
   15.7250    2.8510   15.1040 C   0  0  0  0  0  0  0  0  0  0  0  0
  4  3  2  0
  3  7  1  0
  7  6  1  0
  6 11  2  0
 11 10  1  0
 10  9  2  0
  9  8  1  0
  8  5  2  0
  6  5  1  0
  5  2  1  0
  3  2  1  0
  2  1  2  0
M  END
