CHIKV_MacB-x0314_C_304_1_CHIKV_MacB-x0300+A+401+1
     RDKit          3D

 10 10  0  0  0  0  0  0  0  0999 V2000
   18.1940    4.3000   11.5730 O   0  0  0  0  0  0  0  0  0  0  0  0
   17.5890    3.8320   12.5370 C   0  0  0  0  0  0  0  0  0  0  0  0
   18.1490    3.5710   13.8260 C   0  0  0  0  0  0  0  0  0  0  0  0
   17.4040    3.0160   14.8120 C   0  0  0  0  0  0  0  0  0  0  0  0
   16.0820    2.6840   14.6730 N   0  0  0  0  0  0  0  0  0  0  0  0
   15.5760    2.9340   13.5030 C   0  0  0  0  0  0  0  0  0  0  0  0
   16.2450    3.4670   12.4350 N   0  0  0  0  0  0  0  0  0  0  0  0
   15.5750    3.5840   11.1260 C   0  0  0  0  0  0  0  0  0  0  0  0
   14.7900    4.8690   10.9900 C   0  0  0  0  0  0  0  0  0  0  0  0
   13.9450    4.8480    9.8310 O   0  0  0  0  0  0  0  0  0  0  0  0
 10  9  1  0
  9  8  1  0
  8  7  1  0
  7  6  1  0
  6  5  2  0
  5  4  1  0
  4  3  2  0
  3  2  1  0
  7  2  1  0
  2  1  2  0
M  END
