CHIKV_MacB-x1365_A_304_1_CHIKV_MacB-x0300+A+401+1
     RDKit          3D

  8  8  0  0  0  0  0  0  0  0999 V2000
    8.5890    8.1770   15.1940 O   0  0  0  0  0  0  0  0  0  0  0  0
    7.5280    7.9310   15.7670 C   0  0  0  0  0  0  0  0  0  0  0  0
    6.9400    8.8280   16.6180 N   0  0  0  0  0  0  0  0  0  0  0  0
    5.6750    8.7190   17.1650 C   0  0  0  0  0  0  0  0  0  0  0  0
    5.2140    9.6590   17.8180 O   0  0  0  0  0  0  0  0  0  0  0  0
    6.8050    6.7970   15.5280 N   0  0  0  0  0  0  0  0  0  0  0  0
    5.5640    6.5990   16.0430 C   0  0  0  0  0  0  0  0  0  0  0  0
    4.9710    7.5180   16.8270 C   0  0  0  0  0  0  0  0  0  0  0  0
  5  4  2  0
  4  8  1  0
  8  7  2  0
  7  6  1  0
  6  2  1  0
  2  1  2  0
  3  2  1  0
  4  3  1  0
M  END
