CHIKV_MacB-x1258_B_304_1_CHIKV_MacB-x0300+A+401+1
     RDKit          3D

  9  9  0  0  0  0  0  0  0  0999 V2000
   17.1870    3.8670   11.2500 O   0  0  0  0  0  0  0  0  0  0  0  0
   16.3870    3.5310   12.1430 C   0  0  0  0  0  0  0  0  0  0  0  0
   15.0750    3.7340   12.0640 N   0  0  0  0  0  0  0  0  0  0  0  0
   16.8920    2.8530   13.3840 C   0  0  0  0  0  0  0  0  0  0  0  0
   15.9900    2.4160   14.2760 N   0  0  0  0  0  0  0  0  0  0  0  0
   16.4710    1.7770   15.3530 C   0  0  0  0  0  0  0  0  0  0  0  0
   17.8250    1.5760   15.5380 C   0  0  0  0  0  0  0  0  0  0  0  0
   18.7280    2.0170   14.6580 N   0  0  0  0  0  0  0  0  0  0  0  0
   18.2540    2.6590   13.5850 C   0  0  0  0  0  0  0  0  0  0  0  0
  3  2  1  0
  2  1  2  0
  4  2  1  0
  4  9  2  0
  9  8  1  0
  8  7  2  0
  7  6  1  0
  6  5  2  0
  5  4  1  0
M  END
