CHIKV_MacB-x0894_A_402_1_CHIKV_MacB-x0300+A+401+1
     RDKit          3D

 10 11  0  0  0  0  0  0  0  0999 V2000
   17.6600   13.7450   12.5950 Cl  0  0  0  0  0  0  0  0  0  0  0  0
   19.0050   12.9350   11.8570 C   0  0  0  0  0  0  0  0  0  0  0  0
   20.3020   13.3210   12.1740 C   0  0  0  0  0  0  0  0  0  0  0  0
   20.8080   14.2480   13.0480 N   0  0  0  0  0  0  0  0  0  0  0  0
   22.1530   14.1980   12.9110 C   0  0  0  0  0  0  0  0  0  0  0  0
   22.5660   13.3110   12.0240 N   0  0  0  0  0  0  0  0  0  0  0  0
   21.3940   12.7300   11.5340 C   0  0  0  0  0  0  0  0  0  0  0  0
   21.1690   11.7310   10.5830 C   0  0  0  0  0  0  0  0  0  0  0  0
   19.8660   11.3350   10.2950 C   0  0  0  0  0  0  0  0  0  0  0  0
   18.7780   11.9370   10.9250 C   0  0  0  0  0  0  0  0  0  0  0  0
  2  1  1  0
  2 10  2  0
 10  9  1  0
  9  8  2  0
  8  7  1  0
  7  6  1  0
  6  5  2  0
  5  4  1  0
  4  3  1  0
  3  2  1  0
  7  3  2  0
M  END
