CHIKV_MacB-x1123_C_403_1_CHIKV_MacB-x0300+A+401+1
     RDKit          3D

  6  6  0  0  0  0  0  0  0  0999 V2000
    4.9970    9.3560   17.7710 N   0  0  0  0  0  0  0  0  0  0  0  0
    5.6980    8.3880   17.1810 C   0  0  0  0  0  0  0  0  0  0  0  0
    5.1270    7.4770   16.3320 N   0  0  0  0  0  0  0  0  0  0  0  0
    6.1160    6.6520   15.9340 C   0  0  0  0  0  0  0  0  0  0  0  0
    7.2970    7.0480   16.5260 N   0  0  0  0  0  0  0  0  0  0  0  0
    7.0030    8.1590   17.3140 N   0  0  0  0  0  0  0  0  0  0  0  0
  2  1  1  0
  2  6  2  0
  6  5  1  0
  5  4  2  0
  4  3  1  0
  3  2  1  0
M  END
