CHIKV_MacB-x1151_A_304_1_CHIKV_MacB-x0300+A+401+1
     RDKit          3D

  6  6  0  0  0  0  0  0  0  0999 V2000
   11.5800    7.8750   14.8520 O   0  0  0  0  0  0  0  0  0  0  0  0
   11.3830    7.0280   13.9800 C   0  0  0  0  0  0  0  0  0  0  0  0
   10.1830    6.6890   13.4780 N   0  0  0  0  0  0  0  0  0  0  0  0
   10.2740    5.5970   12.5210 C   0  0  0  0  0  0  0  0  0  0  0  0
   11.7810    5.4230   12.3470 C   0  0  0  0  0  0  0  0  0  0  0  0
   12.3290    6.2940   13.3880 N   0  0  0  0  0  0  0  0  0  0  0  0
  2  1  2  0
  2  6  1  0
  6  5  1  0
  5  4  1  0
  4  3  1  0
  3  2  1  0
M  END
