CHIKV_MacB-x1335_B_401_1_CHIKV_MacB-x0300+A+401+1
     RDKit          3D

  9  9  0  0  0  0  0  0  0  0999 V2000
   14.3770    0.4870   18.3580 N   0  0  0  0  0  0  0  0  0  0  0  0
   15.1880   -0.6110   18.5900 C   0  0  0  0  0  0  0  0  0  0  0  0
   16.0200   -1.1110   17.5860 C   0  0  0  0  0  0  0  0  0  0  0  0
   16.9010   -2.1460   17.8410 C   0  0  0  0  0  0  0  0  0  0  0  0
   15.2440   -1.2070   19.8520 C   0  0  0  0  0  0  0  0  0  0  0  0
   16.1260   -2.2430   20.1070 C   0  0  0  0  0  0  0  0  0  0  0  0
   16.9670   -2.7110   19.1050 C   0  0  0  0  0  0  0  0  0  0  0  0
   18.1490   -3.9800   19.4180 S   0  0  0  0  0  0  0  0  0  0  0  0
   19.6740   -3.3110   18.7580 C   0  0  0  0  0  0  0  0  0  0  0  0
  9  8  1  0
  8  7  1  0
  7  4  2  0
  4  3  1  0
  3  2  2  0
  2  1  1  0
  5  2  1  0
  6  5  2  0
  7  6  1  0
M  END
