CHIKV_MacB-x1194_D_401_1_CHIKV_MacB-x0300+A+401+1
     RDKit          3D

 13 14  0  0  0  0  0  0  0  0999 V2000
   14.5070   13.0180   11.1230 O   0  0  0  0  0  0  0  0  0  0  0  0
   14.7110   11.8110   11.1950 C   0  0  0  0  0  0  0  0  0  0  0  0
   14.8850   11.0060   10.1200 N   0  0  0  0  0  0  0  0  0  0  0  0
   15.0150    9.6730   10.5740 N   0  0  0  0  0  0  0  0  0  0  0  0
   14.5830    8.5760    9.7190 C   0  0  0  0  0  0  0  0  0  0  0  0
   14.9400    9.6330   11.9310 C   0  0  0  0  0  0  0  0  0  0  0  0
   14.7570   10.9400   12.3880 C   0  0  0  0  0  0  0  0  0  0  0  0
   14.7920   11.1220   13.7790 C   0  0  0  0  0  0  0  0  0  0  0  0
   14.6690   12.4820   14.4170 C   0  0  0  0  0  0  0  0  0  0  0  0
   14.9760    9.9980   14.5770 C   0  0  0  0  0  0  0  0  0  0  0  0
   15.1030    8.5360   12.6850 N   0  0  0  0  0  0  0  0  0  0  0  0
   15.1240    8.7310   14.0180 C   0  0  0  0  0  0  0  0  0  0  0  0
   15.3310    7.5150   14.8670 C   0  0  0  0  0  0  0  0  0  0  0  0
 13 12  1  0
 12 10  2  0
 10  8  1  0
  9  8  1  0
  8  7  2  0
  7  2  1  0
  2  1  2  0
  3  2  1  0
  4  3  1  0
  5  4  1  0
  6  4  1  0
  7  6  1  0
 11  6  2  0
 12 11  1  0
M  END
