CHIKV_MacB-x1123_C_401_1_CHIKV_MacB-x1145+C+304+1
     RDKit          3D

  6  6  0  0  0  0  0  0  0  0999 V2000
    0.3020    2.7510   17.0550 N   0  0  0  0  0  0  0  0  0  0  0  0
   -0.3040    2.1550   18.0710 C   0  0  0  0  0  0  0  0  0  0  0  0
   -0.5770    0.8190   18.0890 N   0  0  0  0  0  0  0  0  0  0  0  0
   -1.1200    0.5580   19.2970 C   0  0  0  0  0  0  0  0  0  0  0  0
   -1.1790    1.6890   20.0050 N   0  0  0  0  0  0  0  0  0  0  0  0
   -0.6670    2.7130   19.2110 N   0  0  0  0  0  0  0  0  0  0  0  0
  2  1  1  0
  2  6  2  0
  6  5  1  0
  5  4  2  0
  4  3  1  0
  3  2  1  0
M  END
