CHIKV_MacB-x0756_C_402_1_CHIKV_MacB-x0300+A+401+1
     RDKit          3D

 12 13  0  0  0  0  0  0  0  0999 V2000
   14.2160   12.8120   12.8600 C   0  0  0  0  0  0  0  0  0  0  0  0
   14.6250   11.7730   11.8710 C   0  0  0  0  0  0  0  0  0  0  0  0
   15.0360   10.4610   12.1000 C   0  0  0  0  0  0  0  0  0  0  0  0
   15.3600    9.9490   10.8900 N   0  0  0  0  0  0  0  0  0  0  0  0
   15.1670   10.8420    9.8740 N   0  0  0  0  0  0  0  0  0  0  0  0
   14.7180   11.9400   10.4830 C   0  0  0  0  0  0  0  0  0  0  0  0
   15.0930    9.6540   13.3350 C   0  0  0  0  0  0  0  0  0  0  0  0
   15.0600    8.2680   13.2840 C   0  0  0  0  0  0  0  0  0  0  0  0
   15.0830    7.5600   14.4680 C   0  0  0  0  0  0  0  0  0  0  0  0
   15.1220    8.1320   15.6750 N   0  0  0  0  0  0  0  0  0  0  0  0
   15.1570    9.4660   15.7100 C   0  0  0  0  0  0  0  0  0  0  0  0
   15.1520   10.2620   14.5830 C   0  0  0  0  0  0  0  0  0  0  0  0
  2  1  1  0
  2  6  1  0
  6  5  2  0
  5  4  1  0
  4  3  1  0
  3  2  2  0
  7  3  1  0
  7 12  2  0
 12 11  1  0
 11 10  2  0
 10  9  1  0
  9  8  2  0
  8  7  1  0
M  END
