CHIKV_MacB-x1182_D_306_1_CHIKV_MacB-x0300+A+401+1
     RDKit          3D

  9  9  0  0  0  0  0  0  0  0999 V2000
    8.2360    8.3410   14.6020 N   0  0  0  0  0  0  0  0  0  0  0  0
    7.7860    7.7920   15.4920 C   0  0  0  0  0  0  0  0  0  0  0  0
    7.2400    7.1060   16.6740 C   0  0  2  0  0  0  0  0  0  0  0  0
    5.8460    6.5130   16.4100 C   0  0  0  0  0  0  0  0  0  0  0  0
    4.8750    7.6870   16.3860 C   0  0  0  0  0  0  0  0  0  0  0  0
    7.0590    8.1030   17.8210 C   0  0  0  0  0  0  0  0  0  0  0  0
    5.3820    8.7120   17.7020 S   0  0  0  0  0  0  0  0  0  0  0  0
    5.3950   10.0860   17.2880 O   0  0  0  0  0  0  0  0  0  0  0  0
    4.6530    8.3930   18.9010 O   0  0  0  0  0  0  0  0  0  0  0  0
  8  7  2  0
  9  7  2  0
  7  5  1  0
  5  4  1  0
  4  3  1  0
  6  3  1  0
  7  6  1  0
  3  2  1  6
  2  1  3  0
M  END
