CHIKV_MacB-x1271_C_401_1_CHIKV_MacB-x0300+A+401+1
     RDKit          3D

 10 11  0  0  0  0  0  0  0  0999 V2000
   14.4180   13.8270   11.9360 N   0  0  0  0  0  0  0  0  0  0  0  0
   14.5880   12.5210   11.7280 C   0  0  0  0  0  0  0  0  0  0  0  0
   14.6860   11.4090   13.0960 S   0  0  0  0  0  0  0  0  0  0  0  0
   14.8850   10.1010   11.9700 C   0  0  0  0  0  0  0  0  0  0  0  0
   14.8700   10.5960   10.6590 C   0  0  0  0  0  0  0  0  0  0  0  0
   14.6970   11.9740   10.5470 N   0  0  0  0  0  0  0  0  0  0  0  0
   15.0110    8.7400   12.2240 C   0  0  0  0  0  0  0  0  0  0  0  0
   15.1160    7.8670   11.1520 C   0  0  0  0  0  0  0  0  0  0  0  0
   15.1070    8.3460    9.8510 C   0  0  0  0  0  0  0  0  0  0  0  0
   14.9930    9.7070    9.5930 C   0  0  0  0  0  0  0  0  0  0  0  0
  2  1  1  0
  2  6  2  0
  6  5  1  0
  5 10  2  0
 10  9  1  0
  9  8  2  0
  8  7  1  0
  7  4  2  0
  5  4  1  0
  4  3  1  0
  3  2  1  0
M  END
