CHIKV_MacB-x1268_C_401_1_CHIKV_MacB-x0300+A+401+1
     RDKit          3D

  9  9  0  0  0  0  0  0  0  0999 V2000
   14.1190    8.9080    9.3890 O   0  0  0  0  0  0  0  0  0  0  0  0
   15.1500    9.2060   10.3310 S   0  0  0  0  0  0  0  0  0  0  0  0
   15.5220    8.2510   11.3260 O   0  0  0  0  0  0  0  0  0  0  0  0
   16.4530    9.6270    9.5330 N   0  0  0  0  0  0  0  0  0  0  0  0
   14.6420   10.6430   11.1760 C   0  0  0  0  0  0  0  0  0  0  0  0
   14.2460   11.7910   10.6050 N   0  0  0  0  0  0  0  0  0  0  0  0
   13.8810   12.6480   11.5990 C   0  0  0  0  0  0  0  0  0  0  0  0
   14.0710   11.9740   12.7550 C   0  0  0  0  0  0  0  0  0  0  0  0
   14.5560   10.7140   12.4890 N   0  0  0  0  0  0  0  0  0  0  0  0
  4  2  1  0
  3  2  2  0
  2  1  2  0
  5  2  1  0
  5  9  2  0
  9  8  1  0
  8  7  2  0
  7  6  1  0
  6  5  1  0
M  END
