CHIKV_MacB-x1135_C_404_1_CHIKV_MacB-x0300+A+401+1
     RDKit          3D

  7  7  0  0  0  0  0  0  0  0999 V2000
   13.6880    8.9720   16.0580 O   0  0  0  0  0  0  0  0  0  0  0  0
   14.4220    8.0320   15.7210 C   0  0  0  0  0  0  0  0  0  0  0  0
   15.0910    8.0780   14.5360 N   0  0  0  0  0  0  0  0  0  0  0  0
   15.9240    7.1200   14.0330 N   0  0  0  0  0  0  0  0  0  0  0  0
   16.0970    6.0650   14.7580 C   0  0  0  0  0  0  0  0  0  0  0  0
   15.4790    5.8550   16.0040 C   0  0  0  0  0  0  0  0  0  0  0  0
   14.6490    6.8320   16.4820 C   0  0  0  0  0  0  0  0  0  0  0  0
  2  1  2  0
  2  7  1  0
  7  6  2  0
  6  5  1  0
  5  4  2  0
  4  3  1  0
  3  2  1  0
M  END
