CHIKV_MacB-x0314_D_401_1_CHIKV_MacB-x0300+A+401+1
     RDKit          3D

 10 10  0  0  0  0  0  0  0  0999 V2000
    8.4550    3.6950   14.3190 O   0  0  0  0  0  0  0  0  0  0  0  0
    8.9260    4.8290   14.3160 C   0  0  0  0  0  0  0  0  0  0  0  0
    9.9040    5.3310   13.4130 C   0  0  0  0  0  0  0  0  0  0  0  0
   10.4130    6.5760   13.5580 C   0  0  0  0  0  0  0  0  0  0  0  0
   10.0490    7.4460   14.5550 N   0  0  0  0  0  0  0  0  0  0  0  0
    9.1440    6.9830   15.3600 C   0  0  0  0  0  0  0  0  0  0  0  0
    8.5610    5.7470   15.2920 N   0  0  0  0  0  0  0  0  0  0  0  0
    7.4890    5.3830   16.2290 C   0  0  0  0  0  0  0  0  0  0  0  0
    6.1200    5.7470   15.7010 C   0  0  0  0  0  0  0  0  0  0  0  0
    6.1060    7.0410   15.1400 O   0  0  0  0  0  0  0  0  0  0  0  0
 10  9  1  0
  9  8  1  0
  8  7  1  0
  7  6  1  0
  6  5  2  0
  5  4  1  0
  4  3  2  0
  3  2  1  0
  7  2  1  0
  2  1  2  0
M  END
