CHIKV_MacB-x1198_B_304_1_CHIKV_MacB-x0300+A+401+1
     RDKit          3D

 10 11  0  0  0  0  0  0  0  0999 V2000
   15.0430    3.7540   11.5160 N   0  0  0  0  0  0  0  0  0  0  0  0
   16.2920    3.6100   11.9660 C   0  0  0  0  0  0  0  0  0  0  0  0
   16.5740    3.0850   13.2190 N   0  0  0  0  0  0  0  0  0  0  0  0
   17.9610    3.1770   13.3180 C   0  0  0  0  0  0  0  0  0  0  0  0
   18.4730    3.7000   12.2110 N   0  0  0  0  0  0  0  0  0  0  0  0
   17.4080    3.9740   11.3510 N   0  0  0  0  0  0  0  0  0  0  0  0
   15.7980    2.5850   14.2450 C   0  0  0  0  0  0  0  0  0  0  0  0
   16.3870    2.1760   15.3870 C   0  0  0  0  0  0  0  0  0  0  0  0
   17.7850    2.2530   15.5270 C   0  0  0  0  0  0  0  0  0  0  0  0
   18.5680    2.7360   14.5200 C   0  0  0  0  0  0  0  0  0  0  0  0
  2  1  1  0
  2  6  2  0
  6  5  1  0
  5  4  2  0
  4 10  1  0
 10  9  2  0
  9  8  1  0
  8  7  2  0
  7  3  1  0
  3  2  1  0
  4  3  1  0
M  END
