CHIKV_MacB-x1337_D_304_1_CHIKV_MacB-x0692+D+304+1
     RDKit          3D

 13 14  0  0  0  0  0  0  0  0999 V2000
    5.4090   19.6750   -6.3710 O   0  0  0  0  0  0  0  0  0  0  0  0
    5.5920   18.3900   -5.7770 S   0  0  0  0  0  0  0  0  0  0  0  0
    6.0860   18.2740   -4.4410 O   0  0  0  0  0  0  0  0  0  0  0  0
    6.5230   17.5440   -6.7280 N   0  0  0  0  0  0  0  0  0  0  0  0
    4.0390   17.6060   -5.8010 C   0  0  0  0  0  0  0  0  0  0  0  0
    2.9730   18.2820   -5.2620 O   0  0  0  0  0  0  0  0  0  0  0  0
    1.8830   17.4380   -5.3500 C   0  0  0  0  0  0  0  0  0  0  0  0
    2.2540   16.2430   -5.9470 C   0  0  0  0  0  0  0  0  0  0  0  0
    3.6600   16.3740   -6.2390 C   0  0  0  0  0  0  0  0  0  0  0  0
    0.5960   17.7030   -4.9060 C   0  0  0  0  0  0  0  0  0  0  0  0
   -0.3600   16.7020   -5.0610 C   0  0  0  0  0  0  0  0  0  0  0  0
   -0.0220   15.4880   -5.6510 C   0  0  0  0  0  0  0  0  0  0  0  0
    1.2760   15.2540   -6.0950 C   0  0  0  0  0  0  0  0  0  0  0  0
  4  2  1  0
  3  2  2  0
  2  1  2  0
  5  2  1  0
  5  9  2  0
  9  8  1  0
  8 13  2  0
 13 12  1  0
 12 11  2  0
 11 10  1  0
 10  7  2  0
  8  7  1  0
  7  6  1  0
  6  5  1  0
M  END
