CHIKV_MacB-x1315_D_306_1_CHIKV_MacB-x0300+A+401+1
     RDKit          3D

 13 13  0  0  0  0  0  0  0  0999 V2000
   17.0450   -3.9830   19.9510 Cl  0  0  0  0  0  0  0  0  0  0  0  0
   16.6240   -2.6540   18.9110 C   0  0  0  0  0  0  0  0  0  0  0  0
   17.4110   -2.3810   17.8140 C   0  0  0  0  0  0  0  0  0  0  0  0
   17.0960   -1.3030   17.0080 C   0  0  0  0  0  0  0  0  0  0  0  0
   15.5250   -1.8790   19.2150 C   0  0  0  0  0  0  0  0  0  0  0  0
   15.2110   -0.8050   18.4010 C   0  0  0  0  0  0  0  0  0  0  0  0
   15.9950   -0.5000   17.2900 C   0  0  0  0  0  0  0  0  0  0  0  0
   15.6590    0.6740   16.4280 C   0  0  0  0  0  0  0  0  0  0  0  0
   14.5280    0.8120   15.9640 O   0  0  0  0  0  0  0  0  0  0  0  0
   16.6370    1.5550   16.2030 N   0  0  0  0  0  0  0  0  0  0  0  0
   16.9990    2.0020   14.8650 C   0  0  0  0  0  0  0  0  0  0  0  0
   16.3930    3.3430   14.5520 C   0  0  0  0  0  0  0  0  0  0  0  0
   15.8400    3.9380   15.7110 O   0  0  0  0  0  0  0  0  0  0  0  0
 13 12  1  0
 12 11  1  0
 11 10  1  0
 10  8  1  0
  9  8  2  0
  8  7  1  0
  7  4  2  0
  4  3  1  0
  3  2  2  0
  2  1  1  0
  5  2  1  0
  6  5  2  0
  7  6  1  0
M  END
