CHIKV_MacB-x1213_B_308_1_CHIKV_MacB-x0300+A+401+1
     RDKit          3D

 10 11  0  0  0  0  0  0  0  0999 V2000
   14.9790    9.7360    9.7720 C   0  0  0  0  0  0  0  0  0  0  0  0
   14.5820    8.3250   10.1350 C   0  0  0  0  0  0  0  0  0  0  0  0
   14.6180   10.7300   10.8450 C   0  0  0  0  0  0  0  0  0  0  0  0
   14.5660   10.3250   12.1880 C   0  0  0  0  0  0  0  0  0  0  0  0
   14.6960    8.9990   12.5470 N   0  0  0  0  0  0  0  0  0  0  0  0
   14.8680    7.9160   11.5750 C   0  0  0  0  0  0  0  0  0  0  0  0
   14.3670   11.9840   10.4410 N   0  0  0  0  0  0  0  0  0  0  0  0
   14.0670   12.8910   11.3830 C   0  0  0  0  0  0  0  0  0  0  0  0
   14.0160   12.5990   12.7300 C   0  0  0  0  0  0  0  0  0  0  0  0
   14.2740   11.3000   13.1460 C   0  0  0  0  0  0  0  0  0  0  0  0
  2  6  1  0
  6  5  1  0
  5  4  1  0
  4 10  2  0
 10  9  1  0
  9  8  2  0
  8  7  1  0
  7  3  2  0
  4  3  1  0
  3  1  1  0
  2  1  1  0
M  END
