CHIKV_MacB-x0732_C_401_1_CHIKV_MacB-x0300+A+401+1
     RDKit          3D

 10 10  0  0  0  0  0  0  0  0999 V2000
   14.9620    0.6770   15.9560 O   0  0  0  0  0  0  0  0  0  0  0  0
   16.1790    0.7660   16.1250 C   0  0  0  0  0  0  0  0  0  0  0  0
   16.9190    1.7810   15.6540 N   0  0  0  0  0  0  0  0  0  0  0  0
   18.3640    1.9390   15.8110 C   0  0  0  0  0  0  0  0  0  0  0  0
   16.2730    2.8550   14.9010 C   0  0  0  0  0  0  0  0  0  0  0  0
   16.8340   -0.3450   16.8990 C   0  0  0  0  0  0  0  0  0  0  0  0
   18.0480   -0.9760   16.6560 C   0  0  0  0  0  0  0  0  0  0  0  0
   18.1690   -1.9550   17.5540 N   0  0  0  0  0  0  0  0  0  0  0  0
   17.1110   -2.0170   18.3920 N   0  0  0  0  0  0  0  0  0  0  0  0
   16.3010   -1.0410   18.0040 C   0  0  0  0  0  0  0  0  0  0  0  0
  5  3  1  0
  4  3  1  0
  3  2  1  0
  2  1  2  0
  6  2  1  0
  6 10  1  0
 10  9  2  0
  9  8  1  0
  8  7  1  0
  7  6  2  0
M  END
