CHIKV_MacB-x1131_A_401_1_CHIKV_MacB-x0300+A+401+1
     RDKit          3D

  7  7  0  0  0  0  0  0  0  0999 V2000
   18.5340    3.8190   11.4200 O   0  0  0  0  0  0  0  0  0  0  0  0
   17.6600    3.7170   12.2770 C   0  0  0  0  0  0  0  0  0  0  0  0
   16.3780    3.7150   11.9740 N   0  0  0  0  0  0  0  0  0  0  0  0
   15.2870    3.5250   12.9130 C   0  0  0  0  0  0  0  0  0  0  0  0
   15.8050    2.8610   14.1630 C   0  0  0  0  0  0  0  0  0  0  0  0
   16.9700    3.6060   14.6770 N   0  0  0  0  0  0  0  0  0  0  0  0
   18.0710    3.5910   13.7160 C   0  0  0  0  0  0  0  0  0  0  0  0
  2  1  2  0
  2  7  1  0
  7  6  1  0
  6  5  1  0
  5  4  1  0
  4  3  1  0
  3  2  1  0
M  END
