CHIKV_MacB-x0894_B_309_1_CHIKV_MacB-x0300+A+401+1
     RDKit          3D

 10 11  0  0  0  0  0  0  0  0999 V2000
   22.8360   13.1840   13.2350 Cl  0  0  0  0  0  0  0  0  0  0  0  0
   21.8190   12.3800   12.0870 C   0  0  0  0  0  0  0  0  0  0  0  0
   20.4370   12.4510   12.2140 C   0  0  0  0  0  0  0  0  0  0  0  0
   19.6090   13.1340   13.0690 N   0  0  0  0  0  0  0  0  0  0  0  0
   18.3450   12.8650   12.6640 C   0  0  0  0  0  0  0  0  0  0  0  0
   18.2800   12.0670   11.6140 N   0  0  0  0  0  0  0  0  0  0  0  0
   19.6110   11.7870   11.3020 C   0  0  0  0  0  0  0  0  0  0  0  0
   20.1970   11.0440   10.2750 C   0  0  0  0  0  0  0  0  0  0  0  0
   21.5830   10.9910   10.1600 C   0  0  0  0  0  0  0  0  0  0  0  0
   22.3990   11.6600   11.0620 C   0  0  0  0  0  0  0  0  0  0  0  0
  2  1  1  0
  2 10  2  0
 10  9  1  0
  9  8  2  0
  8  7  1  0
  7  6  1  0
  6  5  2  0
  5  4  1  0
  4  3  1  0
  3  2  1  0
  7  3  2  0
M  END
