CHIKV_MacB-x0858_D_306_1_CHIKV_MacB-x0300+A+401+1
     RDKit          3D

 15 16  0  0  0  0  0  0  0  0999 V2000
   14.4410    0.7700   16.8350 O   0  0  0  0  0  0  0  0  0  0  0  0
   15.6590    0.6750   16.9070 C   0  0  0  0  0  0  0  0  0  0  0  0
   16.4750    1.5820   16.0410 C   0  0  0  0  0  0  0  0  0  0  0  0
   17.7050    1.2970   15.5720 N   0  0  0  0  0  0  0  0  0  0  0  0
   18.1300    2.5460   14.6330 S   0  0  0  0  0  0  0  0  0  0  0  0
   16.8010    3.4570   14.8010 N   0  0  0  0  0  0  0  0  0  0  0  0
   15.9650    2.8110   15.6070 C   0  0  0  0  0  0  0  0  0  0  0  0
   16.2320   -0.2140   17.7420 N   0  0  0  0  0  0  0  0  0  0  0  0
   17.6700   -0.4510   17.9150 C   0  0  0  0  0  0  0  0  0  0  0  0
   15.3340   -0.9800   18.6300 C   0  0  2  0  0  0  0  0  0  0  0  0
   15.2980   -0.3850   20.0270 C   0  0  0  0  0  0  0  0  0  0  0  0
   15.7770   -2.4220   18.6340 C   0  0  0  0  0  0  0  0  0  0  0  0
   17.1700   -2.5470   18.9280 O   0  0  0  0  0  0  0  0  0  0  0  0
   17.9600   -1.9380   17.9410 C   0  0  2  0  0  0  0  0  0  0  0  0
   19.3940   -2.2230   18.3210 C   0  0  0  0  0  0  0  0  0  0  0  0
 14 15  1  1
 14  9  1  0
  9  8  1  0
 10  8  1  0
 10 11  1  1
 12 10  1  0
 13 12  1  0
 14 13  1  0
  8  2  1  0
  2  1  2  0
  3  2  1  0
  3  7  1  0
  7  6  2  0
  6  5  1  0
  5  4  1  0
  4  3  2  0
M  END
