CHIKV_MacB-x1118_D_403_1_CHIKV_MacB-x0692+D+304+1
     RDKit          3D

  7  7  0  0  0  0  0  0  0  0999 V2000
    0.2400   18.8410   -4.2280 O   0  0  0  0  0  0  0  0  0  0  0  0
    0.6650   17.7010   -4.7790 C   0  0  0  0  0  0  0  0  0  0  0  0
    2.0010   17.5820   -5.0470 N   0  0  0  0  0  0  0  0  0  0  0  0
    2.3960   16.4740   -5.6930 C   0  0  0  0  0  0  0  0  0  0  0  0
    1.5360   15.4670   -6.0880 C   0  0  0  0  0  0  0  0  0  0  0  0
    0.1970   15.5940   -5.7830 C   0  0  0  0  0  0  0  0  0  0  0  0
   -0.2650   16.7170   -5.1180 C   0  0  0  0  0  0  0  0  0  0  0  0
  2  1  1  0
  2  7  2  0
  7  6  1  0
  6  5  2  0
  5  4  1  0
  4  3  2  0
  3  2  1  0
M  END
