CHIKV_MacB-x1203_C_310_1_CHIKV_MacB-x0300+A+401+1
     RDKit          3D

 11 12  0  0  0  0  0  0  0  0999 V2000
   16.2190    2.2790   14.9330 N   0  0  0  0  0  0  0  0  0  0  0  0
   16.6470    1.2120   15.6090 C   0  0  0  0  0  0  0  0  0  0  0  0
   15.8720    0.4090   16.3100 N   0  0  0  0  0  0  0  0  0  0  0  0
   16.7240   -0.5660   16.8330 C   0  0  0  0  0  0  0  0  0  0  0  0
   18.0300   -0.3300   16.4160 C   0  0  0  0  0  0  0  0  0  0  0  0
   17.9690    0.8230   15.6380 N   0  0  0  0  0  0  0  0  0  0  0  0
   19.1140    1.4910   15.0300 C   0  0  0  0  0  0  0  0  0  0  0  0
   19.0830   -1.1610   16.7710 C   0  0  0  0  0  0  0  0  0  0  0  0
   18.7940   -2.2550   17.5720 C   0  0  0  0  0  0  0  0  0  0  0  0
   17.4920   -2.5030   18.0050 C   0  0  0  0  0  0  0  0  0  0  0  0
   16.4460   -1.6640   17.6460 C   0  0  0  0  0  0  0  0  0  0  0  0
  7  6  1  0
  6  2  1  0
  2  1  1  0
  3  2  2  0
  4  3  1  0
  4 11  2  0
 11 10  1  0
 10  9  2  0
  9  8  1  0
  8  5  2  0
  6  5  1  0
  5  4  1  0
M  END
