CHIKV_MacB-x1445_A_306_1_CHIKV_MacB-x0300+A+401+1
     RDKit          3D

 10 10  0  0  0  0  0  0  0  0999 V2000
   22.1570   14.4150   12.7400 O   0  0  0  0  0  0  0  0  0  0  0  0
   22.1830   13.3440   12.1230 C   0  0  0  0  0  0  0  0  0  0  0  0
   23.3070   12.6660   11.9220 N   0  0  0  0  0  0  0  0  0  0  0  0
   20.9120   12.7740   11.5810 C   0  0  0  0  0  0  0  0  0  0  0  0
   19.6870   13.1070   12.1990 C   0  0  0  0  0  0  0  0  0  0  0  0
   19.6180   14.0270   13.1910 O   0  0  0  0  0  0  0  0  0  0  0  0
   18.5130   12.4780   11.8000 C   0  0  0  0  0  0  0  0  0  0  0  0
   18.5430   11.5180   10.8050 C   0  0  0  0  0  0  0  0  0  0  0  0
   19.7330   11.1860   10.1980 C   0  0  0  0  0  0  0  0  0  0  0  0
   20.9130   11.8080   10.5740 C   0  0  0  0  0  0  0  0  0  0  0  0
  3  2  1  0
  2  1  2  0
  4  2  1  0
  4 10  2  0
 10  9  1  0
  9  8  2  0
  8  7  1  0
  7  5  2  0
  5  4  1  0
  6  5  1  0
M  END
