CHIKV_MacB-x0553_B_304_1_CHIKV_MacB-x0300+A+401+1
     RDKit          3D

 14 14  0  0  0  0  0  0  0  0999 V2000
   15.6070    7.1420   12.1590 N   0  0  0  0  0  0  0  0  0  0  0  0
   15.4790    8.2590   11.9390 C   0  0  0  0  0  0  0  0  0  0  0  0
   15.3240    9.6660   11.7430 C   0  0  0  0  0  0  0  0  0  0  0  0
   15.0240   10.3410   10.5120 C   0  0  0  0  0  0  0  0  0  0  0  0
   14.8630    9.7680    9.1410 C   0  0  0  0  0  0  0  0  0  0  0  0
   14.8750   11.6460   10.5950 N   0  0  0  0  0  0  0  0  0  0  0  0
   15.0920   12.1990   12.1520 S   0  0  0  0  0  0  0  0  0  0  0  0
   15.4000   10.6220   12.7520 C   0  0  0  0  0  0  0  0  0  0  0  0
   15.6720   10.4600   14.0670 N   0  0  0  0  0  0  0  0  0  0  0  0
   14.8100    9.6520   14.9180 C   0  0  0  0  0  0  0  0  0  0  0  0
   16.8220   11.1030   14.6940 C   0  0  0  0  0  0  0  0  0  0  0  0
   17.7420   10.1680   15.4680 C   0  0  0  0  0  0  0  0  0  0  0  0
   18.7030   10.6180   16.1010 O   0  0  0  0  0  0  0  0  0  0  0  0
   17.4570    8.8760   15.4160 N   0  0  0  0  0  0  0  0  0  0  0  0
 10  9  1  0
 11  9  1  0
 12 11  1  0
 13 12  2  0
 14 12  1  0
  9  8  1  0
  8  7  1  0
  7  6  1  0
  6  4  2  0
  5  4  1  0
  4  3  1  0
  8  3  2  0
  3  2  1  0
  2  1  3  0
M  END
