CHIKV_MacB-x1440_A_305_1_CHIKV_MacB-x0300+A+401+1
     RDKit          3D

 11 12  0  0  0  0  0  0  0  0999 V2000
   14.3540   12.9140   11.6820 N   0  0  0  0  0  0  0  0  0  0  0  0
   14.6510   11.6450   11.3580 C   0  0  0  0  0  0  0  0  0  0  0  0
   14.8190   10.6230   12.3670 C   0  0  0  0  0  0  0  0  0  0  0  0
   15.0710    9.2980   11.9120 C   0  0  0  0  0  0  0  0  0  0  0  0
   15.1740    9.0620   10.5210 C   0  0  0  0  0  0  0  0  0  0  0  0
   15.0330   10.0990    9.6530 C   0  0  0  0  0  0  0  0  0  0  0  0
   14.7680   11.3620   10.0230 N   0  0  0  0  0  0  0  0  0  0  0  0
   14.7760   10.8520   13.7680 C   0  0  0  0  0  0  0  0  0  0  0  0
   14.9640    9.8310   14.6480 C   0  0  0  0  0  0  0  0  0  0  0  0
   15.1860    8.5400   14.1980 C   0  0  0  0  0  0  0  0  0  0  0  0
   15.2360    8.2660   12.8630 C   0  0  0  0  0  0  0  0  0  0  0  0
  2  1  1  0
  2  7  2  0
  7  6  1  0
  6  5  2  0
  5  4  1  0
  4 11  2  0
 11 10  1  0
 10  9  2  0
  9  8  1  0
  8  3  2  0
  3  2  1  0
  4  3  1  0
M  END
