CHIKV_MacB-x1135_D_502_1_CHIKV_MacB-x0300+A+401+1
     RDKit          3D

  7  7  0  0  0  0  0  0  0  0999 V2000
    5.0390    9.5980   17.8380 O   0  0  0  0  0  0  0  0  0  0  0  0
    5.5130    8.7120   17.0990 C   0  0  0  0  0  0  0  0  0  0  0  0
    6.8270    8.7460   16.7450 N   0  0  0  0  0  0  0  0  0  0  0  0
    7.4880    7.8410   15.9580 N   0  0  0  0  0  0  0  0  0  0  0  0
    6.7920    6.8480   15.5070 C   0  0  0  0  0  0  0  0  0  0  0  0
    5.4240    6.6610   15.7810 C   0  0  0  0  0  0  0  0  0  0  0  0
    4.7900    7.5860   16.5640 C   0  0  0  0  0  0  0  0  0  0  0  0
  2  1  2  0
  2  7  1  0
  7  6  2  0
  6  5  1  0
  5  4  2  0
  4  3  1  0
  3  2  1  0
M  END
