CHIKV_MacB-x1288_B_304_1_CHIKV_MacB-x0300+A+401+1
     RDKit          3D

 10 11  0  0  0  0  0  0  0  0999 V2000
   14.5010   12.9230   11.7720 N   0  0  0  0  0  0  0  0  0  0  0  0
   14.6470   11.7470   11.1530 C   0  0  0  0  0  0  0  0  0  0  0  0
   14.8120   10.4680   11.8360 C   0  0  0  0  0  0  0  0  0  0  0  0
   14.9130    9.5540   10.8010 C   0  0  0  0  0  0  0  0  0  0  0  0
   14.8250   10.1850    9.6000 O   0  0  0  0  0  0  0  0  0  0  0  0
   14.6430   11.5890    9.8510 N   0  0  0  0  0  0  0  0  0  0  0  0
   14.8650   10.0080   13.1500 C   0  0  0  0  0  0  0  0  0  0  0  0
   15.0250    8.6480   13.3840 C   0  0  0  0  0  0  0  0  0  0  0  0
   15.1190    7.7490   12.3250 C   0  0  0  0  0  0  0  0  0  0  0  0
   15.0620    8.1960   11.0100 C   0  0  0  0  0  0  0  0  0  0  0  0
  2  1  1  0
  2  6  2  0
  6  5  1  0
  5  4  1  0
  4 10  2  0
 10  9  1  0
  9  8  2  0
  8  7  1  0
  7  3  2  0
  3  2  1  0
  4  3  1  0
M  END
