CHIKV_MacB-x0312_D_401_1_CHIKV_MacB-x0300+A+401+1
     RDKit          3D

 15 16  0  0  0  0  0  0  0  0999 V2000
   17.6780   12.3540   11.7990 O   0  0  0  0  0  0  0  0  0  0  0  0
   16.7750   13.1040   12.1480 C   0  0  0  0  0  0  0  0  0  0  0  0
   17.0170   14.2940   12.7300 N   0  0  0  0  0  0  0  0  0  0  0  0
   18.3830   14.7880   12.9020 C   0  0  0  0  0  0  0  0  0  0  0  0
   15.9680   15.1740   13.2580 C   0  0  0  0  0  0  0  0  0  0  0  0
   15.3080   12.7200   11.9440 C   0  0  0  0  0  0  0  0  0  0  0  0
   15.1830   11.3950   11.3760 N   0  0  0  0  0  0  0  0  0  0  0  0
   15.1600   10.1880   12.0080 C   0  0  0  0  0  0  0  0  0  0  0  0
   15.1030    9.2090   10.9990 C   0  0  0  0  0  0  0  0  0  0  0  0
   15.0930    9.9520    9.7890 C   0  0  0  0  0  0  0  0  0  0  0  0
   15.1350   11.2470   10.0140 N   0  0  0  0  0  0  0  0  0  0  0  0
   15.2110    9.8400   13.3540 C   0  0  0  0  0  0  0  0  0  0  0  0
   15.2080    8.4920   13.6900 C   0  0  0  0  0  0  0  0  0  0  0  0
   15.1510    7.5100   12.7030 C   0  0  0  0  0  0  0  0  0  0  0  0
   15.0990    7.8610   11.3620 C   0  0  0  0  0  0  0  0  0  0  0  0
  5  3  1  0
  4  3  1  0
  3  2  1  0
  2  1  2  0
  6  2  1  0
  7  6  1  0
  7 11  1  0
 11 10  2  0
 10  9  1  0
  9 15  2  0
 15 14  1  0
 14 13  2  0
 13 12  1  0
 12  8  2  0
  8  7  1  0
  9  8  1  0
M  END
