CHIKV_MacB-x1417_D_401_1_CHIKV_MacB-x0300+A+401+1
     RDKit          3D

 12 12  0  0  0  0  0  0  0  0999 V2000
   15.2220    8.3140   12.6940 O   0  0  0  0  0  0  0  0  0  0  0  0
   15.0690    9.4460   13.0870 C   0  0  0  0  0  0  0  0  0  0  0  0
   15.0000    9.7730   14.3840 O   0  0  0  0  0  0  0  0  0  0  0  0
   14.9820    8.6580   15.3320 C   0  0  0  0  0  0  0  0  0  0  0  0
   14.9830    9.1760   16.7270 C   0  0  0  0  0  0  0  0  0  0  0  0
   14.9260   10.6280   12.1890 C   0  0  0  0  0  0  0  0  0  0  0  0
   14.7200   11.9470   12.5820 C   0  0  0  0  0  0  0  0  0  0  0  0
   14.6560   12.5740   13.9380 C   0  0  0  0  0  0  0  0  0  0  0  0
   14.5970   12.6720   11.4590 N   0  0  0  0  0  0  0  0  0  0  0  0
   14.7200   11.9130   10.3370 N   0  0  0  0  0  0  0  0  0  0  0  0
   14.9330   10.6650   10.7600 C   0  0  0  0  0  0  0  0  0  0  0  0
   15.1670    9.5590    9.7830 C   0  0  0  0  0  0  0  0  0  0  0  0
  5  4  1  0
  4  3  1  0
  3  2  1  0
  2  1  2  0
  6  2  1  0
  6 11  1  0
 12 11  1  0
 11 10  2  0
 10  9  1  0
  9  7  1  0
  7  6  2  0
  8  7  1  0
M  END
