CHIKV_MacB-x1103_D_304_1_CHIKV_MacB-x0300+A+401+1
     RDKit          3D

  5  5  0  0  0  0  0  0  0  0999 V2000
    6.4620    8.5170   17.4490 N   0  0  0  0  0  0  0  0  0  0  0  0
    5.9220    7.4960   16.7720 C   0  0  0  0  0  0  0  0  0  0  0  0
    5.5690    9.4850   17.6960 N   0  0  0  0  0  0  0  0  0  0  0  0
    4.4420    9.0920   17.1540 N   0  0  0  0  0  0  0  0  0  0  0  0
    4.6260    7.8730   16.5850 C   0  0  0  0  0  0  0  0  0  0  0  0
  5  2  2  0
  2  1  1  0
  3  1  1  0
  4  3  2  0
  5  4  1  0
M  END
