CHIKV_MacB-x1132_A_305_1_CHIKV_MacB-x0300+A+401+1
     RDKit          3D

  7  7  0  0  0  0  0  0  0  0999 V2000
   14.3450   12.6670   11.7790 N   0  0  0  0  0  0  0  0  0  0  0  0
   14.5750   11.4130   11.3780 C   0  0  0  0  0  0  0  0  0  0  0  0
   14.6600   10.4540   12.3310 N   0  0  0  0  0  0  0  0  0  0  0  0
   14.8940    9.2060   11.8990 C   0  0  0  0  0  0  0  0  0  0  0  0
   15.0550    8.8800   10.5720 C   0  0  0  0  0  0  0  0  0  0  0  0
   14.9550    9.9290    9.6790 C   0  0  0  0  0  0  0  0  0  0  0  0
   14.7130   11.1960   10.0490 N   0  0  0  0  0  0  0  0  0  0  0  0
  2  1  1  0
  2  7  2  0
  7  6  1  0
  6  5  2  0
  5  4  1  0
  4  3  2  0
  3  2  1  0
M  END
