CHIKV_MacB-x0926_A_401_1_CHIKV_MacB-x0300+A+401+1
     RDKit          3D

 15 16  0  0  0  0  0  0  0  0999 V2000
   17.8240   -1.9760   16.9540 O   0  0  0  0  0  0  0  0  0  0  0  0
   17.3070   -0.9040   17.2070 C   0  0  0  0  0  0  0  0  0  0  0  0
   16.5220   -0.7650   18.2890 N   0  0  0  0  0  0  0  0  0  0  0  0
   16.0080   -1.9150   19.0420 C   0  0  0  0  0  0  0  0  0  0  0  0
   16.5200   -1.8680   20.4610 C   0  0  0  0  0  0  0  0  0  0  0  0
   16.1330   -0.5670   21.1290 C   0  0  0  0  0  0  0  0  0  0  0  0
   16.5840    0.6380   20.3050 C   0  0  0  0  0  0  0  0  0  0  0  0
   16.1480    0.5490   18.8440 C   0  0  2  0  0  0  0  0  0  0  0  0
   14.6670    0.8380   18.6440 C   0  0  0  0  0  0  0  0  0  0  0  0
   17.5850    0.2620   16.2920 C   0  0  0  0  0  0  0  0  0  0  0  0
   18.8580    0.6440   16.1190 N   0  0  0  0  0  0  0  0  0  0  0  0
   19.0750    1.6250   15.2340 C   0  0  0  0  0  0  0  0  0  0  0  0
   18.0470    2.2210   14.5400 C   0  0  0  0  0  0  0  0  0  0  0  0
   16.7740    1.8510   14.7150 N   0  0  0  0  0  0  0  0  0  0  0  0
   16.5500    0.8740   15.5990 C   0  0  0  0  0  0  0  0  0  0  0  0
  8  9  1  1
  8  7  1  0
  7  6  1  0
  6  5  1  0
  5  4  1  0
  4  3  1  0
  8  3  1  0
  3  2  1  0
  2  1  2  0
 10  2  1  0
 10 15  2  0
 15 14  1  0
 14 13  2  0
 13 12  1  0
 12 11  2  0
 11 10  1  0
M  END
