CHIKV_MacB-x1421_C_304_1_CHIKV_MacB-x0300+A+401+1
     RDKit          3D

 15 16  0  0  0  0  0  0  0  0999 V2000
   14.9000    0.4830   15.7360 O   0  0  0  0  0  0  0  0  0  0  0  0
   16.0000    0.4910   16.2700 C   0  0  0  0  0  0  0  0  0  0  0  0
   16.3680   -0.6240   17.1920 C   0  0  0  0  0  0  0  0  0  0  0  0
   17.4780   -1.4470   17.0090 C   0  0  0  0  0  0  0  0  0  0  0  0
   17.7440   -2.4660   17.9040 C   0  0  0  0  0  0  0  0  0  0  0  0
   16.9080   -2.6800   18.9890 C   0  0  0  0  0  0  0  0  0  0  0  0
   15.5310   -0.8340   18.2810 C   0  0  0  0  0  0  0  0  0  0  0  0
   15.8030   -1.8580   19.1730 C   0  0  0  0  0  0  0  0  0  0  0  0
   14.9670   -2.0130   20.2330 O   0  0  0  0  0  0  0  0  0  0  0  0
   16.8730    1.5080   16.1010 N   0  0  0  0  0  0  0  0  0  0  0  0
   18.1920    1.6020   16.7350 C   0  0  0  0  0  0  0  0  0  0  0  0
   19.2240    1.9080   15.6950 C   0  0  0  0  0  0  0  0  0  0  0  0
   18.9170    3.1140   15.0130 O   0  0  0  0  0  0  0  0  0  0  0  0
   17.6630    2.9960   14.3510 C   0  0  0  0  0  0  0  0  0  0  0  0
   16.5490    2.7020   15.3120 C   0  0  0  0  0  0  0  0  0  0  0  0
  9  8  1  0
  8  6  2  0
  6  5  1  0
  5  4  2  0
  4  3  1  0
  7  3  2  0
  8  7  1  0
  3  2  1  0
  2  1  2  0
 10  2  1  0
 10 15  1  0
 15 14  1  0
 14 13  1  0
 13 12  1  0
 12 11  1  0
 11 10  1  0
M  END
