CHIKV_MacB-x1123_D_306_1_CHIKV_MacB-x0300+A+401+1
     RDKit          3D

  6  6  0  0  0  0  0  0  0  0999 V2000
   14.3650   12.5120   11.5410 N   0  0  0  0  0  0  0  0  0  0  0  0
   14.6220   11.2690   11.1430 C   0  0  0  0  0  0  0  0  0  0  0  0
   14.8010   10.9340    9.8360 N   0  0  0  0  0  0  0  0  0  0  0  0
   15.0220    9.6070    9.8000 C   0  0  0  0  0  0  0  0  0  0  0  0
   14.9750    9.1130   11.0700 N   0  0  0  0  0  0  0  0  0  0  0  0
   14.7240   10.1870   11.9180 N   0  0  0  0  0  0  0  0  0  0  0  0
  2  1  1  0
  2  6  2  0
  6  5  1  0
  5  4  2  0
  4  3  1  0
  3  2  1  0
M  END
