CHIKV_MacB-x1091_D_401_1_CHIKV_MacB-x0300+A+401+1
     RDKit          3D

 11 11  0  0  0  0  0  0  0  0999 V2000
   17.9650    2.7600   15.8450 Br  0  0  0  0  0  0  0  0  0  0  0  0
   17.1650    3.3200   14.2360 C   0  0  0  0  0  0  0  0  0  0  0  0
   15.8180    3.3010   14.1240 C   0  0  0  0  0  0  0  0  0  0  0  0
   15.1850    3.5810   12.8790 C   0  0  0  0  0  0  0  0  0  0  0  0
   13.9710    3.6300   12.7130 O   0  0  0  0  0  0  0  0  0  0  0  0
   18.0050    3.6650   13.1470 C   0  0  0  0  0  0  0  0  0  0  0  0
   17.4020    3.9120   11.9690 C   0  0  0  0  0  0  0  0  0  0  0  0
   16.0420    3.8480   11.8120 N   0  0  0  0  0  0  0  0  0  0  0  0
   15.4650    3.9160   10.4590 C   0  0  0  0  0  0  0  0  0  0  0  0
   14.5290    5.0920   10.2840 C   0  0  0  0  0  0  0  0  0  0  0  0
   13.7770    4.9520    9.0890 O   0  0  0  0  0  0  0  0  0  0  0  0
  5  4  2  0
  4  8  1  0
  9  8  1  0
 10  9  1  0
 11 10  1  0
  8  7  1  0
  7  6  2  0
  6  2  1  0
  2  1  1  0
  3  2  2  0
  4  3  1  0
M  END
