CHIKV_MacB-x1440_A_306_1_CHIKV_MacB-x0300+A+401+1
     RDKit          3D

 11 12  0  0  0  0  0  0  0  0999 V2000
   22.1480   11.8240   10.3740 N   0  0  0  0  0  0  0  0  0  0  0  0
   20.8950   12.0620   10.7770 C   0  0  0  0  0  0  0  0  0  0  0  0
   20.5810   13.1390   11.6890 C   0  0  0  0  0  0  0  0  0  0  0  0
   19.2070   13.3190   12.0310 C   0  0  0  0  0  0  0  0  0  0  0  0
   18.2440   12.4380   11.4800 C   0  0  0  0  0  0  0  0  0  0  0  0
   18.6420   11.4480   10.6330 C   0  0  0  0  0  0  0  0  0  0  0  0
   19.9160   11.2380   10.2650 N   0  0  0  0  0  0  0  0  0  0  0  0
   21.5270   14.0530   12.2310 C   0  0  0  0  0  0  0  0  0  0  0  0
   21.1310   15.0760   13.0420 C   0  0  0  0  0  0  0  0  0  0  0  0
   19.7910   15.2450   13.3670 C   0  0  0  0  0  0  0  0  0  0  0  0
   18.8440   14.3900   12.8840 C   0  0  0  0  0  0  0  0  0  0  0  0
  2  1  1  0
  2  7  2  0
  7  6  1  0
  6  5  2  0
  5  4  1  0
  4 11  2  0
 11 10  1  0
 10  9  2  0
  9  8  1  0
  8  3  2  0
  3  2  1  0
  4  3  1  0
M  END
