CHIKV_MacB-x1410_C_308_1_CHIKV_MacB-x0300+A+401+1
     RDKit          3D

 11 12  0  0  0  0  0  0  0  0999 V2000
   15.3740    6.6930   11.4450 F   0  0  0  0  0  0  0  0  0  0  0  0
   15.2280    8.0320   11.2310 C   0  0  0  0  0  0  0  0  0  0  0  0
   15.2830    8.4890    9.9320 C   0  0  0  0  0  0  0  0  0  0  0  0
   15.1520    9.8480    9.6970 C   0  0  0  0  0  0  0  0  0  0  0  0
   15.0460    8.8500   12.3280 C   0  0  0  0  0  0  0  0  0  0  0  0
   14.9110   10.2100   12.0680 C   0  0  0  0  0  0  0  0  0  0  0  0
   14.9560   10.7210   10.7640 C   0  0  0  0  0  0  0  0  0  0  0  0
   14.7640   12.0980   10.6580 N   0  0  0  0  0  0  0  0  0  0  0  0
   14.6320   11.5080   13.1970 S   0  0  0  0  0  0  0  0  0  0  0  0
   14.5830   12.6300   11.8370 C   0  0  0  0  0  0  0  0  0  0  0  0
   14.3470   13.9210   12.0460 N   0  0  0  0  0  0  0  0  0  0  0  0
 11 10  1  0
 10  8  2  0
  8  7  1  0
  7  4  2  0
  4  3  1  0
  3  2  2  0
  2  1  1  0
  5  2  1  0
  6  5  2  0
  7  6  1  0
  9  6  1  0
 10  9  1  0
M  END
