CHIKV_MacB-x1213_A_402_1_CHIKV_MacB-x0300+A+401+1
     RDKit          3D

 10 11  0  0  0  0  0  0  0  0999 V2000
   20.3550   14.5670   13.3630 C   0  0  0  0  0  0  0  0  0  0  0  0
   21.8490   14.4210   13.5750 C   0  0  0  0  0  0  0  0  0  0  0  0
   19.7710   13.5130   12.4610 C   0  0  0  0  0  0  0  0  0  0  0  0
   20.5980   12.6390   11.7270 C   0  0  0  0  0  0  0  0  0  0  0  0
   21.9670   12.7570   11.7320 N   0  0  0  0  0  0  0  0  0  0  0  0
   22.6760   13.7940   12.4710 C   0  0  0  0  0  0  0  0  0  0  0  0
   18.4320   13.4330   12.4490 N   0  0  0  0  0  0  0  0  0  0  0  0
   17.8710   12.4610   11.7150 C   0  0  0  0  0  0  0  0  0  0  0  0
   18.5950   11.5500   10.9760 C   0  0  0  0  0  0  0  0  0  0  0  0
   19.9800   11.6380   10.9730 C   0  0  0  0  0  0  0  0  0  0  0  0
  2  6  1  0
  6  5  1  0
  5  4  1  0
  4 10  2  0
 10  9  1  0
  9  8  2  0
  8  7  1  0
  7  3  2  0
  4  3  1  0
  3  1  1  0
  2  1  1  0
M  END
