CHIKV_MacB-x1372_B_308_1_CHIKV_MacB-x0300+A+401+1
     RDKit          3D

 11 11  0  0  0  0  0  0  0  0999 V2000
   15.3920    9.4160   15.5790 Cl  0  0  0  0  0  0  0  0  0  0  0  0
   15.1850    9.2980   13.8500 C   0  0  0  0  0  0  0  0  0  0  0  0
   15.0000   10.4530   13.1170 C   0  0  0  0  0  0  0  0  0  0  0  0
   15.1840    8.0580   13.2550 C   0  0  0  0  0  0  0  0  0  0  0  0
   14.9660    7.9660   11.8920 C   0  0  0  0  0  0  0  0  0  0  0  0
   14.7510    9.1080   11.1000 C   0  0  0  0  0  0  0  0  0  0  0  0
   14.4640    8.9560    9.7580 N   0  0  0  0  0  0  0  0  0  0  0  0
   14.7870   10.3800   11.7330 C   0  0  0  0  0  0  0  0  0  0  0  0
   14.6220   11.6280   10.9220 C   0  0  0  0  0  0  0  0  0  0  0  0
   14.3080   11.5580    9.7200 O   0  0  0  0  0  0  0  0  0  0  0  0
   14.8150   12.7820   11.5370 N   0  0  0  0  0  0  0  0  0  0  0  0
 11  9  1  0
 10  9  2  0
  9  8  1  0
  8  3  1  0
  3  2  2  0
  2  1  1  0
  4  2  1  0
  5  4  2  0
  6  5  1  0
  8  6  2  0
  7  6  1  0
M  END
