CHIKV_MacB-x1406_B_401_1_CHIKV_MacB-x0300+A+401+1
     RDKit          3D

  8  8  0  0  0  0  0  0  0  0999 V2000
   14.1450   13.3120   11.8650 N   0  0  0  0  0  0  0  0  0  0  0  0
   14.3750   12.0270   11.5510 C   0  0  0  0  0  0  0  0  0  0  0  0
   14.4300   11.0310   12.5510 C   0  0  0  0  0  0  0  0  0  0  0  0
   14.6170    9.7180   12.1650 C   0  0  0  0  0  0  0  0  0  0  0  0
   14.5210   11.7160   10.2410 N   0  0  0  0  0  0  0  0  0  0  0  0
   14.7080   10.4280    9.9150 C   0  0  0  0  0  0  0  0  0  0  0  0
   14.7570    9.3820   10.8270 C   0  0  0  0  0  0  0  0  0  0  0  0
   14.9170    7.9490   10.3850 C   0  0  0  0  0  0  0  0  0  0  0  0
  8  7  1  0
  7  4  2  0
  4  3  1  0
  3  2  2  0
  2  1  1  0
  5  2  1  0
  6  5  2  0
  7  6  1  0
M  END
