CHIKV_MacB-x1440_C_501_1_CHIKV_MacB-x0300+A+401+1
     RDKit          3D

 11 12  0  0  0  0  0  0  0  0999 V2000
   14.4320   12.8910   11.6150 N   0  0  0  0  0  0  0  0  0  0  0  0
   14.7740   11.6370   11.3190 C   0  0  0  0  0  0  0  0  0  0  0  0
   14.8880   10.6200   12.3420 C   0  0  0  0  0  0  0  0  0  0  0  0
   15.2590    9.3140   11.9160 C   0  0  0  0  0  0  0  0  0  0  0  0
   15.5080    9.0860   10.5360 C   0  0  0  0  0  0  0  0  0  0  0  0
   15.3790   10.1150    9.6500 C   0  0  0  0  0  0  0  0  0  0  0  0
   15.0240   11.3620    9.9950 N   0  0  0  0  0  0  0  0  0  0  0  0
   14.6770   10.8350   13.7310 C   0  0  0  0  0  0  0  0  0  0  0  0
   14.8280    9.8200   14.6300 C   0  0  0  0  0  0  0  0  0  0  0  0
   15.1830    8.5490   14.2070 C   0  0  0  0  0  0  0  0  0  0  0  0
   15.3920    8.2900   12.8850 C   0  0  0  0  0  0  0  0  0  0  0  0
  2  1  1  0
  2  7  2  0
  7  6  1  0
  6  5  2  0
  5  4  1  0
  4 11  2  0
 11 10  1  0
 10  9  2  0
  9  8  1  0
  8  3  2  0
  3  2  1  0
  4  3  1  0
M  END
