CHIKV_MacB-x1299_C_401_1_CHIKV_MacB-x0300+A+401+1
     RDKit          3D

 13 14  0  0  0  0  0  0  0  0999 V2000
   14.6170   13.7170   11.7100 N   0  0  0  0  0  0  0  0  0  0  0  0
   14.7740   12.4070   11.5040 C   0  0  0  0  0  0  0  0  0  0  0  0
   14.5960   11.8160   10.3460 N   0  0  0  0  0  0  0  0  0  0  0  0
   14.8210   10.4610   10.5830 C   0  0  0  0  0  0  0  0  0  0  0  0
   15.1470   10.2480   11.9220 C   0  0  0  0  0  0  0  0  0  0  0  0
   15.1210   11.5250   12.5090 N   0  0  0  0  0  0  0  0  0  0  0  0
   15.2370   11.8310   13.9540 C   0  0  0  0  0  0  0  0  0  0  0  0
   14.3500   10.9170   14.7830 C   0  0  0  0  0  0  0  0  0  0  0  0
   16.6860   11.7870   14.4060 C   0  0  0  0  0  0  0  0  0  0  0  0
   15.3660    8.9770   12.4360 C   0  0  0  0  0  0  0  0  0  0  0  0
   15.2430    7.9000   11.5680 C   0  0  0  0  0  0  0  0  0  0  0  0
   14.9140    8.0950   10.2290 C   0  0  0  0  0  0  0  0  0  0  0  0
   14.7080    9.3720    9.7210 C   0  0  0  0  0  0  0  0  0  0  0  0
  9  7  1  0
  8  7  1  0
  7  6  1  0
  6  2  1  0
  2  1  1  0
  3  2  2  0
  4  3  1  0
  4 13  2  0
 13 12  1  0
 12 11  2  0
 11 10  1  0
 10  5  2  0
  6  5  1  0
  5  4  1  0
M  END
