CHIKV_MacB-x1410_D_401_1_CHIKV_MacB-x0300+A+401+1
     RDKit          3D

 11 12  0  0  0  0  0  0  0  0999 V2000
   15.4750    6.6490   11.5030 F   0  0  0  0  0  0  0  0  0  0  0  0
   15.3110    7.9830   11.2930 C   0  0  0  0  0  0  0  0  0  0  0  0
   15.3650    8.4480    9.9980 C   0  0  0  0  0  0  0  0  0  0  0  0
   15.1890    9.8030    9.7700 C   0  0  0  0  0  0  0  0  0  0  0  0
   15.0950    8.7860   12.3890 C   0  0  0  0  0  0  0  0  0  0  0  0
   14.9320   10.1430   12.1420 C   0  0  0  0  0  0  0  0  0  0  0  0
   14.9720   10.6650   10.8440 C   0  0  0  0  0  0  0  0  0  0  0  0
   14.8260   12.0480   10.7570 N   0  0  0  0  0  0  0  0  0  0  0  0
   14.7080   11.4300   13.2890 S   0  0  0  0  0  0  0  0  0  0  0  0
   14.6910   12.5710   11.9480 C   0  0  0  0  0  0  0  0  0  0  0  0
   14.5490   13.8760   12.1800 N   0  0  0  0  0  0  0  0  0  0  0  0
 11 10  1  0
 10  8  2  0
  8  7  1  0
  7  4  2  0
  4  3  1  0
  3  2  2  0
  2  1  1  0
  5  2  1  0
  6  5  2  0
  7  6  1  0
  9  6  1  0
 10  9  1  0
M  END
