CHIKV_MacB-x1114_B_308_1_CHIKV_MacB-x0300+A+401+1
     RDKit          3D

  6  6  0  0  0  0  0  0  0  0999 V2000
   11.0520    7.8610   14.8530 O   0  0  0  0  0  0  0  0  0  0  0  0
   11.3150    6.9150   14.1210 C   0  0  0  0  0  0  0  0  0  0  0  0
   10.4190    6.1960   13.4610 N   0  0  0  0  0  0  0  0  0  0  0  0
   10.9780    5.0580   12.7400 C   0  0  0  0  0  0  0  0  0  0  0  0
   12.4230    5.0170   13.2150 C   0  0  0  0  0  0  0  0  0  0  0  0
   12.6850    6.3740   13.8360 C   0  0  0  0  0  0  0  0  0  0  0  0
  2  1  2  0
  2  6  1  0
  6  5  1  0
  5  4  1  0
  4  3  1  0
  3  2  1  0
M  END
