CHIKV_MacB-x1075_B_304_1_CHIKV_MacB-x0300+A+401+1
     RDKit          3D

  8  8  0  0  0  0  0  0  0  0999 V2000
   15.2600    8.2660   13.3200 Br  0  0  0  0  0  0  0  0  0  0  0  0
   15.0790    9.5830   11.9640 C   0  0  0  0  0  0  0  0  0  0  0  0
   15.3310    9.2430   10.6570 C   0  0  0  0  0  0  0  0  0  0  0  0
   15.1540   10.2270    9.7060 C   0  0  0  0  0  0  0  0  0  0  0  0
   14.7460   11.4740    9.9860 N   0  0  0  0  0  0  0  0  0  0  0  0
   14.6740   10.8550   12.3120 C   0  0  0  0  0  0  0  0  0  0  0  0
   14.5100   11.7840   11.2860 C   0  0  0  0  0  0  0  0  0  0  0  0
   14.0840   13.0300   11.5450 N   0  0  0  0  0  0  0  0  0  0  0  0
  8  7  1  0
  7  5  1  0
  5  4  2  0
  4  3  1  0
  3  2  2  0
  2  1  1  0
  6  2  1  0
  7  6  2  0
M  END
