CHIKV_MacB-x1091_C_308_1_CHIKV_MacB-x0300+A+401+1
     RDKit          3D

 11 11  0  0  0  0  0  0  0  0999 V2000
   17.8360    3.1460   16.2470 Br  0  0  0  0  0  0  0  0  0  0  0  0
   17.1890    3.2330   14.4910 C   0  0  0  0  0  0  0  0  0  0  0  0
   17.9630    3.7690   13.5240 C   0  0  0  0  0  0  0  0  0  0  0  0
   17.4870    3.8770   12.1900 C   0  0  0  0  0  0  0  0  0  0  0  0
   18.1370    4.3370   11.2560 O   0  0  0  0  0  0  0  0  0  0  0  0
   15.8870    2.7460   14.2380 C   0  0  0  0  0  0  0  0  0  0  0  0
   15.4450    2.8540   12.9750 C   0  0  0  0  0  0  0  0  0  0  0  0
   16.1950    3.4020   11.9750 N   0  0  0  0  0  0  0  0  0  0  0  0
   15.6170    3.5120   10.6280 C   0  0  0  0  0  0  0  0  0  0  0  0
   14.6590    4.6760   10.5200 C   0  0  0  0  0  0  0  0  0  0  0  0
   13.9830    4.6870    9.2820 O   0  0  0  0  0  0  0  0  0  0  0  0
  5  4  2  0
  4  8  1  0
  9  8  1  0
 10  9  1  0
 11 10  1  0
  8  7  1  0
  7  6  2  0
  6  2  1  0
  2  1  1  0
  3  2  2  0
  4  3  1  0
M  END
