CHIKV_MacB-x1132_C_308_1_CHIKV_MacB-x0300+A+401+1
     RDKit          3D

  7  7  0  0  0  0  0  0  0  0999 V2000
   14.3990   12.8390   11.5200 N   0  0  0  0  0  0  0  0  0  0  0  0
   14.6010   11.5610   11.1960 C   0  0  0  0  0  0  0  0  0  0  0  0
   14.7830   10.6770   12.2080 N   0  0  0  0  0  0  0  0  0  0  0  0
   14.9310    9.3920   11.8540 C   0  0  0  0  0  0  0  0  0  0  0  0
   14.9120    8.9580   10.5440 C   0  0  0  0  0  0  0  0  0  0  0  0
   14.7340    9.9370    9.5880 C   0  0  0  0  0  0  0  0  0  0  0  0
   14.5780   11.2380    9.8800 N   0  0  0  0  0  0  0  0  0  0  0  0
  2  1  1  0
  2  7  2  0
  7  6  1  0
  6  5  2  0
  5  4  1  0
  4  3  2  0
  3  2  1  0
M  END
