CHIKV_MacB-x0441_D_401_1_CHIKV_MacB-x0300+A+401+1
     RDKit          3D

 15 16  0  0  0  0  0  0  0  0999 V2000
   17.8500    3.9920   11.2960 O   0  0  0  0  0  0  0  0  0  0  0  0
   16.9240    3.7840   12.0960 C   0  0  0  0  0  0  0  0  0  0  0  0
   15.6550    4.0800   11.8140 N   0  0  0  0  0  0  0  0  0  0  0  0
   17.2290    3.1520   13.4370 C   0  0  0  0  0  0  0  0  0  0  0  0
   16.2750    2.5960   14.2880 C   0  0  0  0  0  0  0  0  0  0  0  0
   16.7130    1.9920   15.4780 C   0  0  0  0  0  0  0  0  0  0  0  0
   18.0060    1.9210   15.8260 N   0  0  0  0  0  0  0  0  0  0  0  0
   18.8990    2.4700   14.9920 C   0  0  0  0  0  0  0  0  0  0  0  0
   18.5640    3.0940   13.8090 C   0  0  0  0  0  0  0  0  0  0  0  0
   15.8140    1.4440   16.3580 N   0  0  0  0  0  0  0  0  0  0  0  0
   16.1590    0.7130   17.5810 C   0  0  0  0  0  0  0  0  0  0  0  0
   16.6100   -0.7380   17.3220 C   0  0  0  0  0  0  0  0  0  0  0  0
   16.1180   -1.4700   18.5220 C   0  0  0  0  0  0  0  0  0  0  0  0
   15.2440   -0.7650   19.1950 C   0  0  0  0  0  0  0  0  0  0  0  0
   14.9900    0.5700   18.5720 C   0  0  0  0  0  0  0  0  0  0  0  0
  3  2  1  0
  2  1  2  0
  4  2  1  0
  4  9  2  0
  9  8  1  0
  8  7  2  0
  7  6  1  0
 10  6  1  0
 11 10  1  0
 11 15  1  0
 15 14  1  0
 14 13  2  0
 13 12  1  0
 12 11  1  0
  6  5  2  0
  5  4  1  0
M  END
