CHIKV_MacB-x1114_C_308_1_CHIKV_MacB-x0300+A+401+1
     RDKit          3D

  6  6  0  0  0  0  0  0  0  0999 V2000
    5.3260    9.6980   17.8590 O   0  0  0  0  0  0  0  0  0  0  0  0
    5.7510    8.7980   17.1420 C   0  0  0  0  0  0  0  0  0  0  0  0
    7.0250    8.6130   16.8360 N   0  0  0  0  0  0  0  0  0  0  0  0
    7.2590    7.5470   15.8660 C   0  0  0  0  0  0  0  0  0  0  0  0
    5.9450    6.7890   15.8560 C   0  0  0  0  0  0  0  0  0  0  0  0
    4.9260    7.7320   16.4790 C   0  0  0  0  0  0  0  0  0  0  0  0
  2  1  2  0
  2  6  1  0
  6  5  1  0
  5  4  1  0
  4  3  1  0
  3  2  1  0
M  END
