CHIKV_MacB-x1305_C_401_1_CHIKV_MacB-x0300+A+401+1
     RDKit          3D

 10 11  0  0  0  0  0  0  0  0999 V2000
   14.5800   11.0190   15.0040 O   0  0  0  0  0  0  0  0  0  0  0  0
   14.6900   11.0640   13.6460 C   0  0  0  0  0  0  0  0  0  0  0  0
   15.3320   10.0130   13.0040 C   0  0  0  0  0  0  0  0  0  0  0  0
   15.4620   10.0720   11.6380 C   0  0  0  0  0  0  0  0  0  0  0  0
   16.0540    9.1560   10.7970 O   0  0  0  0  0  0  0  0  0  0  0  0
   15.9320    9.7050    9.4850 C   0  0  0  0  0  0  0  0  0  0  0  0
   15.2360   10.9510    9.5780 O   0  0  0  0  0  0  0  0  0  0  0  0
   14.9690   11.1290   10.9170 C   0  0  0  0  0  0  0  0  0  0  0  0
   14.3160   12.1780   11.5350 C   0  0  0  0  0  0  0  0  0  0  0  0
   14.1790   12.1410   12.9140 C   0  0  0  0  0  0  0  0  0  0  0  0
  2  1  1  0
  2 10  2  0
 10  9  1  0
  9  8  2  0
  8  7  1  0
  7  6  1  0
  6  5  1  0
  5  4  1  0
  8  4  1  0
  4  3  2  0
  3  2  1  0
M  END
