CHIKV_MacB-x1271_B_308_1_CHIKV_MacB-x0300+A+401+1
     RDKit          3D

 10 11  0  0  0  0  0  0  0  0999 V2000
   14.3890   13.7460   12.0830 N   0  0  0  0  0  0  0  0  0  0  0  0
   14.6390   12.4500   11.8610 C   0  0  0  0  0  0  0  0  0  0  0  0
   14.8290   11.3460   13.2180 S   0  0  0  0  0  0  0  0  0  0  0  0
   14.9350   10.0300   12.0860 C   0  0  0  0  0  0  0  0  0  0  0  0
   14.8520   10.5200   10.7790 C   0  0  0  0  0  0  0  0  0  0  0  0
   14.6840   11.9020   10.6740 N   0  0  0  0  0  0  0  0  0  0  0  0
   15.0540    8.6670   12.3400 C   0  0  0  0  0  0  0  0  0  0  0  0
   15.1050    7.7920   11.2660 C   0  0  0  0  0  0  0  0  0  0  0  0
   15.0320    8.2650    9.9660 C   0  0  0  0  0  0  0  0  0  0  0  0
   14.9080    9.6270    9.7100 C   0  0  0  0  0  0  0  0  0  0  0  0
  2  1  1  0
  2  6  2  0
  6  5  1  0
  5 10  2  0
 10  9  1  0
  9  8  2  0
  8  7  1  0
  7  4  2  0
  5  4  1  0
  4  3  1  0
  3  2  1  0
M  END
