CHIKV_MacB-x1353_D_501_1_CHIKV_MacB-x1132+D+307+1
     RDKit          3D

  6  6  0  0  0  0  0  0  0  0999 V2000
   16.5240   -1.2610   17.1500 N   0  0  0  0  0  0  0  0  0  0  0  0
   17.4210   -2.0560   17.7410 C   0  0  0  0  0  0  0  0  0  0  0  0
   16.9640   -3.1110   19.0490 S   0  0  0  0  0  0  0  0  0  0  0  0
   18.5810   -3.6520   19.1400 C   0  0  0  0  0  0  0  0  0  0  0  0
   19.3350   -3.0300   18.2140 C   0  0  0  0  0  0  0  0  0  0  0  0
   18.6890   -2.1160   17.4080 N   0  0  0  0  0  0  0  0  0  0  0  0
  2  1  1  0
  2  6  2  0
  6  5  1  0
  5  4  2  0
  4  3  1  0
  3  2  1  0
M  END
