CHIKV_MacB-x1151_B_309_1_CHIKV_MacB-x0300+A+401+1
     RDKit          3D

  6  6  0  0  0  0  0  0  0  0999 V2000
    4.7590    9.6360   17.8920 O   0  0  0  0  0  0  0  0  0  0  0  0
    5.2170    8.5870   17.4470 C   0  0  0  0  0  0  0  0  0  0  0  0
    5.1210    8.1630   16.1750 N   0  0  0  0  0  0  0  0  0  0  0  0
    5.7480    6.8620   15.9780 C   0  0  0  0  0  0  0  0  0  0  0  0
    6.5310    6.6880   17.2670 C   0  0  0  0  0  0  0  0  0  0  0  0
    5.9350    7.7040   18.1330 N   0  0  0  0  0  0  0  0  0  0  0  0
  2  1  2  0
  2  6  1  0
  6  5  1  0
  5  4  1  0
  4  3  1  0
  3  2  1  0
M  END
