CHIKV_MacB-x0858_B_304_1_CHIKV_MacB-x0300+A+401+1
     RDKit          3D

 15 16  0  0  0  0  0  0  0  0999 V2000
   14.5750    0.7380   16.4630 O   0  0  0  0  0  0  0  0  0  0  0  0
   15.7090    0.5490   16.8920 C   0  0  0  0  0  0  0  0  0  0  0  0
   15.9110   -0.6030   17.8260 C   0  0  0  0  0  0  0  0  0  0  0  0
   16.9010   -1.5040   17.6880 N   0  0  0  0  0  0  0  0  0  0  0  0
   16.6350   -2.6460   18.8090 S   0  0  0  0  0  0  0  0  0  0  0  0
   15.2960   -2.0310   19.4830 N   0  0  0  0  0  0  0  0  0  0  0  0
   15.0010   -0.8890   18.8520 C   0  0  0  0  0  0  0  0  0  0  0  0
   16.7250    1.3700   16.5540 N   0  0  0  0  0  0  0  0  0  0  0  0
   16.4970    2.4610   15.5990 C   0  0  0  0  0  0  0  0  0  0  0  0
   18.0810    1.2830   17.1270 C   0  0  1  0  0  0  0  0  0  0  0  0
   19.1010    0.8770   16.0790 C   0  0  0  0  0  0  0  0  0  0  0  0
   18.3880    2.6310   17.7270 C   0  0  0  0  0  0  0  0  0  0  0  0
   18.2380    3.6810   16.7610 O   0  0  0  0  0  0  0  0  0  0  0  0
   16.9240    3.7970   16.1710 C   0  0  2  0  0  0  0  0  0  0  0  0
   15.9540    4.3010   17.2130 C   0  0  0  0  0  0  0  0  0  0  0  0
 14 15  1  1
 14  9  1  0
  9  8  1  0
 10  8  1  0
 10 11  1  6
 12 10  1  0
 13 12  1  0
 14 13  1  0
  8  2  1  0
  2  1  2  0
  3  2  1  0
  3  7  1  0
  7  6  2  0
  6  5  1  0
  5  4  1  0
  4  3  2  0
M  END
