CHIKV_MacB-x1135_A_305_1_CHIKV_MacB-x0300+A+401+1
     RDKit          3D

  7  7  0  0  0  0  0  0  0  0999 V2000
    5.1880    9.7830   17.8110 O   0  0  0  0  0  0  0  0  0  0  0  0
    5.6260    8.8250   17.1600 C   0  0  0  0  0  0  0  0  0  0  0  0
    6.9180    8.8280   16.7240 N   0  0  0  0  0  0  0  0  0  0  0  0
    7.5050    7.9030   15.9160 N   0  0  0  0  0  0  0  0  0  0  0  0
    6.7760    6.8970   15.5630 C   0  0  0  0  0  0  0  0  0  0  0  0
    5.4370    6.7250   15.9510 C   0  0  0  0  0  0  0  0  0  0  0  0
    4.8640    7.6850   16.7320 C   0  0  0  0  0  0  0  0  0  0  0  0
  2  1  2  0
  2  7  1  0
  7  6  2  0
  6  5  1  0
  5  4  2  0
  4  3  1  0
  3  2  1  0
M  END
