CHIKV_MacB-x1271_C_402_1_CHIKV_MacB-x0300+A+401+1
     RDKit          3D

 10 11  0  0  0  0  0  0  0  0999 V2000
   22.7810   12.5190    9.6930 N   0  0  0  0  0  0  0  0  0  0  0  0
   21.6890   12.7340   10.4270 C   0  0  0  0  0  0  0  0  0  0  0  0
   20.3950   11.5360   10.4620 S   0  0  0  0  0  0  0  0  0  0  0  0
   19.4850   12.6050   11.4970 C   0  0  0  0  0  0  0  0  0  0  0  0
   20.2260   13.7680   11.7470 C   0  0  0  0  0  0  0  0  0  0  0  0
   21.4760   13.8190   11.1280 N   0  0  0  0  0  0  0  0  0  0  0  0
   18.2130   12.4360   12.0360 C   0  0  0  0  0  0  0  0  0  0  0  0
   17.6870   13.4400   12.8380 C   0  0  0  0  0  0  0  0  0  0  0  0
   18.4130   14.5940   13.0930 C   0  0  0  0  0  0  0  0  0  0  0  0
   19.6820   14.7660   12.5550 C   0  0  0  0  0  0  0  0  0  0  0  0
  2  1  1  0
  2  6  2  0
  6  5  1  0
  5 10  2  0
 10  9  1  0
  9  8  2  0
  8  7  1  0
  7  4  2  0
  5  4  1  0
  4  3  1  0
  3  2  1  0
M  END
