CHIKV_MacB-x1338_B_304_1_CHIKV_MacB-x0300+A+401+1
     RDKit          3D

 11 12  0  0  0  0  0  0  0  0999 V2000
   14.3380   13.6760   12.3040 N   0  0  0  0  0  0  0  0  0  0  0  0
   14.4750   12.3470   12.4100 C   0  0  0  0  0  0  0  0  0  0  0  0
   14.5940   11.6380   11.2860 N   0  0  0  0  0  0  0  0  0  0  0  0
   14.7180   10.2740   11.3850 C   0  0  0  0  0  0  0  0  0  0  0  0
   14.7300    9.6060   12.6360 C   0  0  0  0  0  0  0  0  0  0  0  0
   14.6150   10.3950   13.7990 C   0  0  0  0  0  0  0  0  0  0  0  0
   14.4910   11.7430   13.6970 C   0  0  0  0  0  0  0  0  0  0  0  0
   14.8280    9.5130   10.1970 C   0  0  0  0  0  0  0  0  0  0  0  0
   14.9410    8.1530   10.2570 C   0  0  0  0  0  0  0  0  0  0  0  0
   14.9660    7.4960   11.4810 C   0  0  0  0  0  0  0  0  0  0  0  0
   14.8610    8.1960   12.6500 C   0  0  0  0  0  0  0  0  0  0  0  0
  2  1  1  0
  2  7  2  0
  7  6  1  0
  6  5  2  0
  5 11  1  0
 11 10  2  0
 10  9  1  0
  9  8  2  0
  8  4  1  0
  5  4  1  0
  4  3  2  0
  3  2  1  0
M  END
