CHIKV_MacB-x0934_A_401_1_CHIKV_MacB-x0300+A+401+1
     RDKit          3D

 15 15  0  0  0  0  0  0  0  0999 V2000
   25.5780    7.8680   13.8250 O   0  0  0  0  0  0  0  0  0  0  0  0
   24.7170    8.7370   13.9900 C   0  0  0  0  0  0  0  0  0  0  0  0
   24.9800   10.0270   13.9870 N   0  0  0  0  0  0  0  0  0  0  0  0
   23.2790    8.3270   14.1910 C   0  0  0  0  0  0  0  0  0  0  0  0
   22.3220    9.3800   13.9420 N   0  0  0  0  0  0  0  0  0  0  0  0
   21.9560    9.6780   12.6860 C   0  0  0  0  0  0  0  0  0  0  0  0
   22.4850    9.1400   11.7190 O   0  0  0  0  0  0  0  0  0  0  0  0
   20.8750   10.6980   12.4990 C   0  0  0  0  0  0  0  0  0  0  0  0
   20.3990   10.9520   11.2100 C   0  0  0  0  0  0  0  0  0  0  0  0
   19.4580   11.9450   10.9860 C   0  0  0  0  0  0  0  0  0  0  0  0
   20.3450   11.4320   13.5580 C   0  0  0  0  0  0  0  0  0  0  0  0
   19.3870   12.4060   13.3410 C   0  0  0  0  0  0  0  0  0  0  0  0
   18.9540   12.6760   12.0490 C   0  0  0  0  0  0  0  0  0  0  0  0
   17.9720   13.5820   11.7280 O   0  0  0  0  0  0  0  0  0  0  0  0
   17.7080   14.6770   12.6070 C   0  0  0  0  0  0  0  0  0  0  0  0
 15 14  1  0
 14 13  1  0
 13 10  2  0
 10  9  1  0
  9  8  2  0
 11  8  1  0
 12 11  2  0
 13 12  1  0
  8  6  1  0
  7  6  2  0
  6  5  1  0
  5  4  1  0
  4  2  1  0
  2  1  2  0
  3  2  1  0
M  END
