CHIKV_MacB-x1435_C_401_1_CHIKV_MacB-x0300+A+401+1
     RDKit          3D

 12 13  0  0  0  0  0  0  0  0999 V2000
   23.1190   14.5750    9.4320 O   0  0  0  0  0  0  0  0  0  0  0  0
   22.9470   13.4640    9.9540 C   0  0  0  0  0  0  0  0  0  0  0  0
   23.9490   12.6400   10.2250 N   0  0  0  0  0  0  0  0  0  0  0  0
   21.5650   13.0180   10.3120 C   0  0  0  0  0  0  0  0  0  0  0  0
   20.6970   13.8470   11.0460 C   0  0  0  0  0  0  0  0  0  0  0  0
   20.7800   15.1810   11.5690 C   0  0  0  0  0  0  0  0  0  0  0  0
   19.5970   15.4330   12.1830 C   0  0  0  0  0  0  0  0  0  0  0  0
   18.7720   14.3420   12.0810 N   0  0  0  0  0  0  0  0  0  0  0  0
   19.4210   13.3510   11.3820 C   0  0  0  0  0  0  0  0  0  0  0  0
   18.9980   12.0820   11.0020 C   0  0  0  0  0  0  0  0  0  0  0  0
   19.8660   11.2910   10.2640 C   0  0  0  0  0  0  0  0  0  0  0  0
   21.1350   11.7470    9.9260 C   0  0  0  0  0  0  0  0  0  0  0  0
  3  2  1  0
  2  1  2  0
  4  2  1  0
  4 12  2  0
 12 11  1  0
 11 10  2  0
 10  9  1  0
  9  8  1  0
  8  7  1  0
  7  6  2  0
  6  5  1  0
  5  4  1  0
  9  5  2  0
M  END
