CHIKV_MacB-x0858_A_401_1_CHIKV_MacB-x0300+A+401+1
     RDKit          3D

 15 16  0  0  0  0  0  0  0  0999 V2000
   14.7100    0.4560   15.9240 O   0  0  0  0  0  0  0  0  0  0  0  0
   15.8590    0.3930   16.3510 C   0  0  0  0  0  0  0  0  0  0  0  0
   16.1490   -0.6290   17.4020 C   0  0  0  0  0  0  0  0  0  0  0  0
   17.1280   -1.5370   17.2410 N   0  0  0  0  0  0  0  0  0  0  0  0
   16.9880   -2.5750   18.4770 S   0  0  0  0  0  0  0  0  0  0  0  0
   15.7250   -1.9080   19.2400 N   0  0  0  0  0  0  0  0  0  0  0  0
   15.3480   -0.8180   18.5390 C   0  0  0  0  0  0  0  0  0  0  0  0
   16.8190    1.2310   15.9130 N   0  0  0  0  0  0  0  0  0  0  0  0
   16.5290    2.1870   14.8380 C   0  0  0  0  0  0  0  0  0  0  0  0
   18.1800    1.2830   16.4870 C   0  0  1  0  0  0  0  0  0  0  0  0
   19.2010    0.6830   15.5480 C   0  0  0  0  0  0  0  0  0  0  0  0
   18.5140    2.7130   16.8040 C   0  0  0  0  0  0  0  0  0  0  0  0
   18.3520    3.5300   15.6390 O   0  0  0  0  0  0  0  0  0  0  0  0
   17.0070    3.5860   15.1690 C   0  0  2  0  0  0  0  0  0  0  0  0
   16.1290    4.2520   16.2110 C   0  0  0  0  0  0  0  0  0  0  0  0
 14 15  1  1
 14  9  1  0
  9  8  1  0
 10  8  1  0
 10 11  1  6
 12 10  1  0
 13 12  1  0
 14 13  1  0
  8  2  1  0
  2  1  2  0
  3  2  1  0
  3  7  1  0
  7  6  2  0
  6  5  1  0
  5  4  1  0
  4  3  2  0
M  END
