CHIKV_MacB-x0864_C_304_1_CHIKV_MacB-x0300+A+401+1
     RDKit          3D

 14 16  0  0  0  0  0  0  0  0999 V2000
   14.9690   11.0490   17.3890 C   0  0  0  0  0  0  0  0  0  0  0  0
   15.0200   11.6880   16.1760 C   0  0  0  0  0  0  0  0  0  0  0  0
   14.8830    9.7370   17.1480 N   0  0  0  0  0  0  0  0  0  0  0  0
   14.8790    9.4670   15.8190 N   0  0  0  0  0  0  0  0  0  0  0  0
   14.9510   10.6620   15.2150 C   0  0  0  0  0  0  0  0  0  0  0  0
   14.8890   10.7740   13.7470 C   0  0  0  0  0  0  0  0  0  0  0  0
   14.3740   11.9380   13.1460 C   0  0  0  0  0  0  0  0  0  0  0  0
   14.3300   12.0730   11.7680 C   0  0  0  0  0  0  0  0  0  0  0  0
   15.3600    9.7380   12.9450 C   0  0  0  0  0  0  0  0  0  0  0  0
   15.3220    9.8930   11.5770 C   0  0  0  0  0  0  0  0  0  0  0  0
   14.8080   11.0280   11.0000 C   0  0  0  0  0  0  0  0  0  0  0  0
   14.8310   10.9040    9.6310 O   0  0  0  0  0  0  0  0  0  0  0  0
   15.8230    9.0530   10.6060 O   0  0  0  0  0  0  0  0  0  0  0  0
   15.6710    9.7700    9.3780 C   0  0  0  0  0  0  0  0  0  0  0  0
 14 12  1  0
 12 11  1  0
 11  8  1  0
  8  7  2  0
  7  6  1  0
  9  6  2  0
 10  9  1  0
 11 10  2  0
 13 10  1  0
 14 13  1  0
  6  5  1  0
  5  2  1  0
  2  1  2  0
  3  1  1  0
  4  3  1  0
  5  4  2  0
M  END
