CHIKV_MacB-x1305_A_305_1_CHIKV_MacB-x0300+A+401+1
     RDKit          3D

 10 11  0  0  0  0  0  0  0  0999 V2000
   22.6150   11.6510   10.3570 O   0  0  0  0  0  0  0  0  0  0  0  0
   21.3500   12.0150   10.7090 C   0  0  0  0  0  0  0  0  0  0  0  0
   21.1580   13.1950   11.4180 C   0  0  0  0  0  0  0  0  0  0  0  0
   19.8720   13.5290   11.7810 C   0  0  0  0  0  0  0  0  0  0  0  0
   19.4280   14.6830   12.3870 O   0  0  0  0  0  0  0  0  0  0  0  0
   18.0220   14.5010   12.5720 C   0  0  0  0  0  0  0  0  0  0  0  0
   17.6380   13.2750   11.9430 O   0  0  0  0  0  0  0  0  0  0  0  0
   18.8090   12.7190   11.4740 C   0  0  0  0  0  0  0  0  0  0  0  0
   18.9840   11.5410   10.7760 C   0  0  0  0  0  0  0  0  0  0  0  0
   20.2670   11.1960   10.3800 C   0  0  0  0  0  0  0  0  0  0  0  0
  2  1  1  0
  2 10  2  0
 10  9  1  0
  9  8  2  0
  8  7  1  0
  7  6  1  0
  6  5  1  0
  5  4  1  0
  8  4  1  0
  4  3  2  0
  3  2  1  0
M  END
