CHIKV_MacB-x0585_B_308_1_CHIKV_MacB-x0300+A+401+1
     RDKit          3D

 15 16  0  0  0  0  0  0  0  0999 V2000
   14.5570    0.5710   15.9130 O   0  0  0  0  0  0  0  0  0  0  0  0
   15.5650    0.6920   16.5880 C   0  0  0  0  0  0  0  0  0  0  0  0
   15.7670   -0.2140   17.7590 C   0  0  0  0  0  0  0  0  0  0  0  0
   16.5910   -1.3350   17.6930 C   0  0  0  0  0  0  0  0  0  0  0  0
   16.6410   -2.2300   18.7500 C   0  0  0  0  0  0  0  0  0  0  0  0
   15.8830   -2.0130   19.8890 C   0  0  0  0  0  0  0  0  0  0  0  0
   15.0230    0.0220   18.9090 C   0  0  0  0  0  0  0  0  0  0  0  0
   15.1110   -0.8800   19.9380 C   0  0  0  0  0  0  0  0  0  0  0  0
   14.4350   -0.6060   21.0850 F   0  0  0  0  0  0  0  0  0  0  0  0
   16.4810    1.6520   16.3410 N   0  0  0  0  0  0  0  0  0  0  0  0
   16.1260    3.0740   16.3200 C   0  0  0  0  0  0  0  0  0  0  0  0
   16.4740    3.6610   14.9730 C   0  0  0  0  0  0  0  0  0  0  0  0
   17.9000    3.4760   14.7000 N   0  0  0  0  0  0  0  0  0  0  0  0
   18.2460    2.0500   14.7200 C   0  0  0  0  0  0  0  0  0  0  0  0
   17.9020    1.4250   16.0530 C   0  0  0  0  0  0  0  0  0  0  0  0
  9  8  1  0
  8  6  2  0
  6  5  1  0
  5  4  2  0
  4  3  1  0
  7  3  2  0
  8  7  1  0
  3  2  1  0
  2  1  2  0
 10  2  1  0
 10 15  1  0
 15 14  1  0
 14 13  1  0
 13 12  1  0
 12 11  1  0
 11 10  1  0
M  END
