CHIKV_MacB-x1108_B_308_1_CHIKV_MacB-x0300+A+401+1
     RDKit          3D

  7  7  0  0  0  0  0  0  0  0999 V2000
    6.3640    6.8500   15.5360 N   0  0  0  0  0  0  0  0  0  0  0  0
    5.8760    7.5480   16.6610 C   0  0  0  0  0  0  0  0  0  0  0  0
    6.3330    7.2280   17.9060 C   0  0  0  0  0  0  0  0  0  0  0  0
    5.9450    7.8650   19.0230 N   0  0  0  0  0  0  0  0  0  0  0  0
    5.0860    8.8680   18.8480 C   0  0  0  0  0  0  0  0  0  0  0  0
    4.5760    9.2790   17.6940 N   0  0  0  0  0  0  0  0  0  0  0  0
    4.9590    8.5870   16.6130 C   0  0  0  0  0  0  0  0  0  0  0  0
  2  1  1  0
  2  7  2  0
  7  6  1  0
  6  5  2  0
  5  4  1  0
  4  3  2  0
  3  2  1  0
M  END
