CHIKV_MacB-x1134_C_309_1_CHIKV_MacB-x0300+A+401+1
     RDKit          3D

  7  6  0  0  0  0  0  0  0  0999 V2000
   13.7990   12.9820   11.4140 O   0  0  0  0  0  0  0  0  0  0  0  0
   14.0250   12.1630   10.2950 N   0  0  0  0  0  0  0  0  0  0  0  0
   14.4110   10.9960   10.6780 C   0  0  0  0  0  0  0  0  0  0  0  0
   14.5730   10.6060   12.0020 N   0  0  0  0  0  0  0  0  0  0  0  0
   14.6880    9.9920    9.5940 C   0  0  0  0  0  0  0  0  0  0  0  0
   13.6140    8.9180    9.5690 C   0  0  0  0  0  0  0  0  0  0  0  0
   16.0800    9.3970    9.7140 C   0  0  0  0  0  0  0  0  0  0  0  0
  7  5  1  0
  6  5  1  0
  5  3  1  0
  3  2  2  0
  2  1  1  0
  4  3  1  0
M  END
