CHIKV_MacB-x1315_C_304_1_CHIKV_MacB-x0300+A+401+1
     RDKit          3D

 13 13  0  0  0  0  0  0  0  0999 V2000
   17.3820   -4.0950   19.8010 Cl  0  0  0  0  0  0  0  0  0  0  0  0
   16.9940   -2.7360   18.7890 C   0  0  0  0  0  0  0  0  0  0  0  0
   17.8790   -2.3550   17.8080 C   0  0  0  0  0  0  0  0  0  0  0  0
   17.5620   -1.2830   16.9970 C   0  0  0  0  0  0  0  0  0  0  0  0
   15.8090   -2.0670   18.9850 C   0  0  0  0  0  0  0  0  0  0  0  0
   15.4940   -0.9990   18.1670 C   0  0  0  0  0  0  0  0  0  0  0  0
   16.3590   -0.6030   17.1550 C   0  0  0  0  0  0  0  0  0  0  0  0
   15.9880    0.4940   16.2140 C   0  0  0  0  0  0  0  0  0  0  0  0
   14.8390    0.5960   15.7870 O   0  0  0  0  0  0  0  0  0  0  0  0
   16.9680    1.3340   15.8700 N   0  0  0  0  0  0  0  0  0  0  0  0
   16.8640    2.2760   14.7700 C   0  0  0  0  0  0  0  0  0  0  0  0
   16.9660    3.6870   15.2720 C   0  0  0  0  0  0  0  0  0  0  0  0
   15.8050    4.0040   16.0240 O   0  0  0  0  0  0  0  0  0  0  0  0
 13 12  1  0
 12 11  1  0
 11 10  1  0
 10  8  1  0
  9  8  2  0
  8  7  1  0
  7  4  2  0
  4  3  1  0
  3  2  2  0
  2  1  1  0
  5  2  1  0
  6  5  2  0
  7  6  1  0
M  END
