CHIKV_MacB-x1410_A_401_1_CHIKV_MacB-x0300+A+401+1
     RDKit          3D

 11 12  0  0  0  0  0  0  0  0999 V2000
   15.3220    6.7960   11.5000 F   0  0  0  0  0  0  0  0  0  0  0  0
   15.1600    8.1230   11.2620 C   0  0  0  0  0  0  0  0  0  0  0  0
   15.0520    8.5400    9.9540 C   0  0  0  0  0  0  0  0  0  0  0  0
   14.8760    9.8910    9.6990 C   0  0  0  0  0  0  0  0  0  0  0  0
   15.1070    8.9700   12.3460 C   0  0  0  0  0  0  0  0  0  0  0  0
   14.9180   10.3190   12.0670 C   0  0  0  0  0  0  0  0  0  0  0  0
   14.7990   10.7940   10.7570 C   0  0  0  0  0  0  0  0  0  0  0  0
   14.6010   12.1700   10.6420 N   0  0  0  0  0  0  0  0  0  0  0  0
   14.7810   11.6410   13.1880 S   0  0  0  0  0  0  0  0  0  0  0  0
   14.5720   12.7300   11.8230 C   0  0  0  0  0  0  0  0  0  0  0  0
   14.3900   14.0310   12.0350 N   0  0  0  0  0  0  0  0  0  0  0  0
 11 10  1  0
 10  8  2  0
  8  7  1  0
  7  4  2  0
  4  3  1  0
  3  2  2  0
  2  1  1  0
  5  2  1  0
  6  5  2  0
  7  6  1  0
  9  6  1  0
 10  9  1  0
M  END
