CHIKV_MacB-x1316_D_306_1_CHIKV_MacB-x0300+A+401+1
     RDKit          3D

 11 11  0  0  0  0  0  0  0  0999 V2000
   15.1350   10.6010    9.3900 O   0  0  0  0  0  0  0  0  0  0  0  0
   14.8870   10.1860   10.5010 C   0  0  0  0  0  0  0  0  0  0  0  0
   14.6860    8.8970   10.7780 O   0  0  0  0  0  0  0  0  0  0  0  0
   14.1550    8.0900    9.7010 C   0  0  0  0  0  0  0  0  0  0  0  0
   14.7890   11.0420   11.7180 C   0  0  0  0  0  0  0  0  0  0  0  0
   14.9690   10.5100   12.9960 C   0  0  0  0  0  0  0  0  0  0  0  0
   14.9370   11.3230   14.1140 C   0  0  0  0  0  0  0  0  0  0  0  0
   14.7320   12.6880   13.9720 C   0  0  0  0  0  0  0  0  0  0  0  0
   14.7580   13.4980   15.0680 O   0  0  0  0  0  0  0  0  0  0  0  0
   14.5340   13.2290   12.7070 C   0  0  0  0  0  0  0  0  0  0  0  0
   14.5550   12.4060   11.5920 C   0  0  0  0  0  0  0  0  0  0  0  0
  4  3  1  0
  3  2  1  0
  2  1  2  0
  5  2  1  0
  5 11  2  0
 11 10  1  0
 10  8  2  0
  9  8  1  0
  8  7  1  0
  7  6  2  0
  6  5  1  0
M  END
