CHIKV_MacB-x1402_A_401_1_CHIKV_MacB-x0300+A+401+1
     RDKit          3D

  9 10  0  0  0  0  0  0  0  0999 V2000
   14.2660   12.7150   11.7360 N   0  0  0  0  0  0  0  0  0  0  0  0
   14.2310   12.7020   13.1090 C   0  0  0  0  0  0  0  0  0  0  0  0
   14.5560   11.4490   11.3080 C   0  0  0  0  0  0  0  0  0  0  0  0
   14.7040   10.6220   12.4460 C   0  0  0  0  0  0  0  0  0  0  0  0
   14.4830   11.4520   13.5770 C   0  0  0  0  0  0  0  0  0  0  0  0
   14.6990   11.0730   10.0320 N   0  0  0  0  0  0  0  0  0  0  0  0
   15.0030    9.7740    9.8520 C   0  0  0  0  0  0  0  0  0  0  0  0
   15.1610    8.8530   10.8890 C   0  0  0  0  0  0  0  0  0  0  0  0
   15.0180    9.2820   12.2010 C   0  0  0  0  0  0  0  0  0  0  0  0
  2  5  2  0
  5  4  1  0
  4  9  2  0
  9  8  1  0
  8  7  2  0
  7  6  1  0
  6  3  2  0
  4  3  1  0
  3  1  1  0
  2  1  1  0
M  END
