CHIKV_MacB-x1288_D_401_1_CHIKV_MacB-x0300+A+401+1
     RDKit          3D

 10 11  0  0  0  0  0  0  0  0999 V2000
   14.6770   12.9270   11.5660 N   0  0  0  0  0  0  0  0  0  0  0  0
   14.8060   11.6660   11.1350 C   0  0  0  0  0  0  0  0  0  0  0  0
   14.8420   10.4860   12.0030 C   0  0  0  0  0  0  0  0  0  0  0  0
   14.9860    9.4310   11.1140 C   0  0  0  0  0  0  0  0  0  0  0  0
   15.0390    9.8900    9.8350 O   0  0  0  0  0  0  0  0  0  0  0  0
   14.9140   11.3260    9.8750 N   0  0  0  0  0  0  0  0  0  0  0  0
   14.8790   10.2270   13.3730 C   0  0  0  0  0  0  0  0  0  0  0  0
   15.0460    8.9160   13.8070 C   0  0  0  0  0  0  0  0  0  0  0  0
   15.1630    7.8680   12.8880 C   0  0  0  0  0  0  0  0  0  0  0  0
   15.1330    8.1180   11.5220 C   0  0  0  0  0  0  0  0  0  0  0  0
  2  1  1  0
  2  6  2  0
  6  5  1  0
  5  4  1  0
  4 10  2  0
 10  9  1  0
  9  8  2  0
  8  7  1  0
  7  3  2  0
  3  2  1  0
  4  3  1  0
M  END
