CHIKV_MacB-x1112_A_305_1_CHIKV_MacB-x0300+A+401+1
     RDKit          3D

  7  7  0  0  0  0  0  0  0  0999 V2000
    5.2650   10.0130   17.4580 O   0  0  0  0  0  0  0  0  0  0  0  0
    5.6650    8.9660   16.9630 C   0  0  0  0  0  0  0  0  0  0  0  0
    4.8320    7.7690   16.6050 C   0  0  0  0  0  0  0  0  0  0  0  0
    5.8140    6.7710   16.0190 C   0  0  0  0  0  0  0  0  0  0  0  0
    6.9680    8.7040   16.6140 N   0  0  0  0  0  0  0  0  0  0  0  0
    7.1460    7.4710   16.0500 C   0  0  0  0  0  0  0  0  0  0  0  0
    8.2170    7.0330   15.6380 O   0  0  0  0  0  0  0  0  0  0  0  0
  7  6  2  0
  6  4  1  0
  4  3  1  0
  3  2  1  0
  2  1  2  0
  5  2  1  0
  6  5  1  0
M  END
