CHIKV_MacB-x1271_A_401_1_CHIKV_MacB-x0300+A+401+1
     RDKit          3D

 10 11  0  0  0  0  0  0  0  0999 V2000
   14.5930   13.7810   12.0340 N   0  0  0  0  0  0  0  0  0  0  0  0
   14.6090   12.4730   11.7920 C   0  0  0  0  0  0  0  0  0  0  0  0
   14.6910   11.3290   13.1290 S   0  0  0  0  0  0  0  0  0  0  0  0
   14.7920   10.0370   11.9660 C   0  0  0  0  0  0  0  0  0  0  0  0
   14.7460   10.5620   10.6700 C   0  0  0  0  0  0  0  0  0  0  0  0
   14.6320   11.9490   10.5960 N   0  0  0  0  0  0  0  0  0  0  0  0
   14.9240    8.6700   12.1840 C   0  0  0  0  0  0  0  0  0  0  0  0
   15.0220    7.8260   11.0910 C   0  0  0  0  0  0  0  0  0  0  0  0
   14.9710    8.3350    9.8010 C   0  0  0  0  0  0  0  0  0  0  0  0
   14.8340    9.7000    9.5800 C   0  0  0  0  0  0  0  0  0  0  0  0
  2  1  1  0
  2  6  2  0
  6  5  1  0
  5 10  2  0
 10  9  1  0
  9  8  2  0
  8  7  1  0
  7  4  2  0
  5  4  1  0
  4  3  1  0
  3  2  1  0
M  END
