CHIKV_MacB-x1305_A_304_1_CHIKV_MacB-x0300+A+401+1
     RDKit          3D

 10 11  0  0  0  0  0  0  0  0999 V2000
   14.9900   11.1390   15.0680 O   0  0  0  0  0  0  0  0  0  0  0  0
   14.8690   11.1660   13.7110 C   0  0  0  0  0  0  0  0  0  0  0  0
   15.3380   10.0780   12.9860 C   0  0  0  0  0  0  0  0  0  0  0  0
   15.2760   10.1380   11.6130 C   0  0  0  0  0  0  0  0  0  0  0  0
   15.7800    9.2420   10.6960 O   0  0  0  0  0  0  0  0  0  0  0  0
   15.4210    9.7630    9.4170 C   0  0  0  0  0  0  0  0  0  0  0  0
   14.8010   11.0400    9.6050 O   0  0  0  0  0  0  0  0  0  0  0  0
   14.7410   11.2220   10.9700 C   0  0  0  0  0  0  0  0  0  0  0  0
   14.2530   12.3060   11.6740 C   0  0  0  0  0  0  0  0  0  0  0  0
   14.3280   12.2780   13.0590 C   0  0  0  0  0  0  0  0  0  0  0  0
  2  1  1  0
  2 10  2  0
 10  9  1  0
  9  8  2  0
  8  7  1  0
  7  6  1  0
  6  5  1  0
  5  4  1  0
  8  4  1  0
  4  3  2  0
  3  2  1  0
M  END
