CHIKV_MacB-x0399_A_401_1_CHIKV_MacB-x0300+A+401+1
     RDKit          3D

 13 14  0  0  0  0  0  0  0  0999 V2000
   14.5790   11.9420   10.1860 O   0  0  0  0  0  0  0  0  0  0  0  0
   14.7410   11.0170   10.9720 C   0  0  0  0  0  0  0  0  0  0  0  0
   14.8950    9.7650   10.5530 N   0  0  0  0  0  0  0  0  0  0  0  0
   14.8860    9.4300    9.1380 C   0  0  0  0  0  0  0  0  0  0  0  0
   14.7810   11.2890   12.4490 C   0  0  0  0  0  0  0  0  0  0  0  0
   14.8470   12.6060   12.9360 C   0  0  0  0  0  0  0  0  0  0  0  0
   14.9200   13.7940   12.2610 N   0  0  0  0  0  0  0  0  0  0  0  0
   15.0390   14.8100   13.1780 C   0  0  0  0  0  0  0  0  0  0  0  0
   15.0330   14.3060   14.4360 C   0  0  0  0  0  0  0  0  0  0  0  0
   14.9120   12.8920   14.3190 C   0  0  0  0  0  0  0  0  0  0  0  0
   14.9020   11.8190   15.2190 C   0  0  0  0  0  0  0  0  0  0  0  0
   14.8300   10.5210   14.7530 C   0  0  0  0  0  0  0  0  0  0  0  0
   14.7700   10.2540   13.3890 C   0  0  0  0  0  0  0  0  0  0  0  0
  4  3  1  0
  3  2  1  0
  2  1  2  0
  5  2  1  0
  5 13  2  0
 13 12  1  0
 12 11  2  0
 11 10  1  0
 10  9  1  0
  9  8  2  0
  8  7  1  0
  7  6  1  0
  6  5  1  0
 10  6  2  0
M  END
