CHIKV_MacB-x1123_C_402_1_CHIKV_MacB-x0300+A+401+1
     RDKit          3D

  6  6  0  0  0  0  0  0  0  0999 V2000
   14.0610   12.8790   11.5610 N   0  0  0  0  0  0  0  0  0  0  0  0
   14.5860   11.7480   11.0800 C   0  0  0  0  0  0  0  0  0  0  0  0
   14.7590   10.6250   11.8450 N   0  0  0  0  0  0  0  0  0  0  0  0
   15.2710    9.6810   11.0280 C   0  0  0  0  0  0  0  0  0  0  0  0
   15.4480   10.2230    9.7390 N   0  0  0  0  0  0  0  0  0  0  0  0
   14.9920   11.5300    9.8260 N   0  0  0  0  0  0  0  0  0  0  0  0
  2  1  1  0
  2  6  2  0
  6  5  1  0
  5  4  2  0
  4  3  1  0
  3  2  1  0
M  END
