CHIKV_MacB-x1440_D_401_1_CHIKV_MacB-x0300+A+401+1
     RDKit          3D

 11 12  0  0  0  0  0  0  0  0999 V2000
   14.4850   12.9330   11.6410 N   0  0  0  0  0  0  0  0  0  0  0  0
   14.7440   11.6600   11.3240 C   0  0  0  0  0  0  0  0  0  0  0  0
   14.8640   10.6260   12.3310 C   0  0  0  0  0  0  0  0  0  0  0  0
   15.1340    9.3050   11.8710 C   0  0  0  0  0  0  0  0  0  0  0  0
   15.2830    9.0860   10.4800 C   0  0  0  0  0  0  0  0  0  0  0  0
   15.1560   10.1360    9.6210 C   0  0  0  0  0  0  0  0  0  0  0  0
   14.8910   11.3950   10.0040 N   0  0  0  0  0  0  0  0  0  0  0  0
   14.7090   10.8260   13.7310 C   0  0  0  0  0  0  0  0  0  0  0  0
   14.8150    9.7860   14.6060 C   0  0  0  0  0  0  0  0  0  0  0  0
   15.0700    8.4980   14.1500 C   0  0  0  0  0  0  0  0  0  0  0  0
   15.2310    8.2530   12.8160 C   0  0  0  0  0  0  0  0  0  0  0  0
  2  1  1  0
  2  7  2  0
  7  6  1  0
  6  5  2  0
  5  4  1  0
  4 11  2  0
 11 10  1  0
 10  9  2  0
  9  8  1  0
  8  3  2  0
  3  2  1  0
  4  3  1  0
M  END
