CHIKV_MacB-x1417_B_308_1_CHIKV_MacB-x0300+A+401+1
     RDKit          3D

 12 12  0  0  0  0  0  0  0  0999 V2000
   15.1270    8.0980   12.9600 O   0  0  0  0  0  0  0  0  0  0  0  0
   15.2280    9.2500   13.2880 C   0  0  0  0  0  0  0  0  0  0  0  0
   15.5930    9.6370   14.5170 O   0  0  0  0  0  0  0  0  0  0  0  0
   14.9190    8.9860   15.6390 C   0  0  0  0  0  0  0  0  0  0  0  0
   15.4320    9.5460   16.9110 C   0  0  0  0  0  0  0  0  0  0  0  0
   14.9740   10.4000   12.3850 C   0  0  0  0  0  0  0  0  0  0  0  0
   14.9790   10.3320   10.9930 C   0  0  0  0  0  0  0  0  0  0  0  0
   15.3250    9.2170   10.0590 C   0  0  0  0  0  0  0  0  0  0  0  0
   14.6270   11.5480   10.5470 N   0  0  0  0  0  0  0  0  0  0  0  0
   14.4130   12.4270   11.5620 N   0  0  0  0  0  0  0  0  0  0  0  0
   14.6180   11.7480   12.6900 C   0  0  0  0  0  0  0  0  0  0  0  0
   14.4600   12.4100   14.0180 C   0  0  0  0  0  0  0  0  0  0  0  0
  5  4  1  0
  4  3  1  0
  3  2  1  0
  2  1  2  0
  6  2  1  0
  6 11  1  0
 12 11  1  0
 11 10  2  0
 10  9  1  0
  9  7  1  0
  7  6  2  0
  8  7  1  0
M  END
