CHIKV_MacB-x1182_B_401_1_CHIKV_MacB-x0300+A+401+1
     RDKit          3D

  9  9  0  0  0  0  0  0  0  0999 V2000
    8.4830    8.6100   15.0100 N   0  0  0  0  0  0  0  0  0  0  0  0
    7.7980    7.9800   15.6810 C   0  0  0  0  0  0  0  0  0  0  0  0
    7.0250    7.0500   16.5190 C   0  0  2  0  0  0  0  0  0  0  0  0
    5.6210    6.7800   15.9420 C   0  0  0  0  0  0  0  0  0  0  0  0
    4.7100    7.9730   16.2100 C   0  0  0  0  0  0  0  0  0  0  0  0
    6.6800    7.5980   17.9000 C   0  0  0  0  0  0  0  0  0  0  0  0
    5.3990    8.7960   17.5840 S   0  0  0  0  0  0  0  0  0  0  0  0
    5.9920   10.0390   17.1740 O   0  0  0  0  0  0  0  0  0  0  0  0
    4.4600    8.8310   18.6720 O   0  0  0  0  0  0  0  0  0  0  0  0
  8  7  2  0
  9  7  2  0
  7  5  1  0
  5  4  1  0
  4  3  1  0
  6  3  1  0
  7  6  1  0
  3  2  1  6
  2  1  3  0
M  END
