CHIKV_MacB-x1402_B_304_1_CHIKV_MacB-x0300+A+401+1
     RDKit          3D

  9 10  0  0  0  0  0  0  0  0999 V2000
   14.3780   12.6540   11.6780 N   0  0  0  0  0  0  0  0  0  0  0  0
   14.3590   12.7240   13.0500 C   0  0  0  0  0  0  0  0  0  0  0  0
   14.6130   11.3570   11.3240 C   0  0  0  0  0  0  0  0  0  0  0  0
   14.7390   10.5910   12.5080 C   0  0  0  0  0  0  0  0  0  0  0  0
   14.5760   11.4980   13.5900 C   0  0  0  0  0  0  0  0  0  0  0  0
   14.7240   10.8990   10.0710 N   0  0  0  0  0  0  0  0  0  0  0  0
   14.9800    9.5850    9.9680 C   0  0  0  0  0  0  0  0  0  0  0  0
   15.1210    8.7240   11.0560 C   0  0  0  0  0  0  0  0  0  0  0  0
   14.9940    9.2310   12.3430 C   0  0  0  0  0  0  0  0  0  0  0  0
  2  5  2  0
  5  4  1  0
  4  9  2  0
  9  8  1  0
  8  7  2  0
  7  6  1  0
  6  3  2  0
  4  3  1  0
  3  1  1  0
  2  1  1  0
M  END
