CHIKV_MacB-x0540_C_401_1_CHIKV_MacB-x0300+A+401+1
     RDKit          3D

 14 14  0  0  0  0  0  0  0  0999 V2000
   19.7600   -4.8640   17.9200 F   0  0  0  0  0  0  0  0  0  0  0  0
   18.7410   -4.1100   18.4170 C   0  0  0  0  0  0  0  0  0  0  0  0
   18.2070   -4.4580   19.6260 C   0  0  0  0  0  0  0  0  0  0  0  0
   17.1580   -3.6990   20.1160 C   0  0  0  0  0  0  0  0  0  0  0  0
   16.6620   -2.6270   19.3910 C   0  0  0  0  0  0  0  0  0  0  0  0
   18.2910   -3.0510   17.6630 C   0  0  0  0  0  0  0  0  0  0  0  0
   17.2310   -2.3130   18.1700 C   0  0  0  0  0  0  0  0  0  0  0  0
   16.6520   -1.2600   17.5110 O   0  0  0  0  0  0  0  0  0  0  0  0
   17.4790   -0.2960   16.8620 C   0  0  0  0  0  0  0  0  0  0  0  0
   16.6060    0.6740   16.0720 C   0  0  0  0  0  0  0  0  0  0  0  0
   15.4120    0.4390   15.9340 O   0  0  0  0  0  0  0  0  0  0  0  0
   17.1770    1.7710   15.5410 N   0  0  0  0  0  0  0  0  0  0  0  0
   18.6200    1.9050   15.3270 C   0  0  0  0  0  0  0  0  0  0  0  0
   16.3820    2.9220   15.1230 C   0  0  0  0  0  0  0  0  0  0  0  0
 14 12  1  0
 13 12  1  0
 12 10  1  0
 11 10  2  0
 10  9  1  0
  9  8  1  0
  8  7  1  0
  7  5  1  0
  5  4  2  0
  4  3  1  0
  3  2  2  0
  2  1  1  0
  6  2  1  0
  7  6  2  0
M  END
